WORKDIR: /tmp/vsc46128/2237417
/tmp/vsc46128/2237417
/tmp/vsc46128/2237417/motorBike/motorBike
generating mesh...
New entry maxGlobalCells  8000000;

New entry blocks          ( hex ( 0 1 2 3 4 5 6 7 ) ( 100 40 40 ) simpleGrading ( 1 1 1 ) );

New entry numberOfSubdomains 8;

New entry n               ( 4 2 1 );

/*---------------------------------------------------------------------------*\
  =========                 |
  \\      /  F ield         | OpenFOAM: The Open Source CFD Toolbox
   \\    /   O peration     | Website:  https://openfoam.org
    \\  /    A nd           | Version:  11
     \\/     M anipulation  |
\*---------------------------------------------------------------------------*/
Build  : 11
Exec   : blockMesh
Date   : Apr 30 2024
Time   : 13:34:58
Host   : "node4011.donphan.os"
PID    : 2238468
I/O    : uncollated
Case   : /tmp/vsc46128/2237417/motorBike/motorBike
nProcs : 1
sigFpe : Enabling floating point exception trapping (FOAM_SIGFPE).
fileModificationChecking : Monitoring run-time modified files using timeStampMaster (fileModificationSkew 10)
allowSystemOperations : Allowing user-supplied system call operations

// * * * * * * * * * * * * * * * * * * * * * * * * * * * * * * * * * * * * * //
Create time

Reading "blockMeshDict"

Creating block mesh from
    "system/blockMeshDict"
No non-linear block edges defined
No non-planar block faces defined
Creating topology blocks
Creating topology patches

Creating block mesh topology

Check topology

	Basic statistics
		Number of internal faces : 0
		Number of boundary faces : 6
		Number of defined boundary faces : 6
		Number of undefined boundary faces : 0
	Checking patch -> block consistency

Creating block offsets
Creating merge list .

Creating polyMesh from blockMesh
Creating patches
Creating cells
Creating points with scale 1
    Block 0 cell size :
        i : 0.2 .. 0.2
        j : 0.2
        k : 0.2 .. 0.2

There are no merge patch pairs edges

Writing polyMesh
----------------
Mesh Information
----------------
  boundingBox: (-5 -4 0) (15 4 8)
  nPoints: 169781
  nCells: 160000
  nFaces: 489600
  nInternalFaces: 470400
----------------
Patches
----------------
  patch 0 (start: 470400 size: 4000) name: front
  patch 1 (start: 474400 size: 4000) name: back
  patch 2 (start: 478400 size: 1600) name: inlet
  patch 3 (start: 480000 size: 1600) name: outlet
  patch 4 (start: 481600 size: 4000) name: lowerWall
  patch 5 (start: 485600 size: 4000) name: upperWall

End

/*---------------------------------------------------------------------------*\
  =========                 |
  \\      /  F ield         | OpenFOAM: The Open Source CFD Toolbox
   \\    /   O peration     | Website:  https://openfoam.org
    \\  /    A nd           | Version:  11
     \\/     M anipulation  |
\*---------------------------------------------------------------------------*/
Build  : 11
Exec   : decomposePar -copyZero
Date   : Apr 30 2024
Time   : 13:34:59
Host   : "node4011.donphan.os"
PID    : 2238470
I/O    : uncollated
Case   : /tmp/vsc46128/2237417/motorBike/motorBike
nProcs : 1
sigFpe : Enabling floating point exception trapping (FOAM_SIGFPE).
fileModificationChecking : Monitoring run-time modified files using timeStampMaster (fileModificationSkew 10)
allowSystemOperations : Allowing user-supplied system call operations

// * * * * * * * * * * * * * * * * * * * * * * * * * * * * * * * * * * * * * //
Create time



Decomposing mesh region0

Create mesh

Calculating distribution of cells
Selecting decomposer hierarchical

Finished decomposition in 0.057225 s

Calculating original mesh data

Distributing cells to processors

Distributing faces to processors

Distributing points to processors

Constructing processor meshes

Processor 0
    Number of cells = 20000
    Number of faces shared with processor 1 = 800
    Number of faces shared with processor 4 = 1000
    Number of processor patches = 2
    Number of processor faces = 1800
    Number of boundary faces = 2800

Processor 1
    Number of cells = 20000
    Number of faces shared with processor 0 = 800
    Number of faces shared with processor 2 = 800
    Number of faces shared with processor 5 = 1000
    Number of processor patches = 3
    Number of processor faces = 2600
    Number of boundary faces = 2000

Processor 2
    Number of cells = 20000
    Number of faces shared with processor 1 = 800
    Number of faces shared with processor 3 = 800
    Number of faces shared with processor 6 = 1000
    Number of processor patches = 3
    Number of processor faces = 2600
    Number of boundary faces = 2000

Processor 3
    Number of cells = 20000
    Number of faces shared with processor 2 = 800
    Number of faces shared with processor 7 = 1000
    Number of processor patches = 2
    Number of processor faces = 1800
    Number of boundary faces = 2800

Processor 4
    Number of cells = 20000
    Number of faces shared with processor 0 = 1000
    Number of faces shared with processor 5 = 800
    Number of processor patches = 2
    Number of processor faces = 1800
    Number of boundary faces = 2800

Processor 5
    Number of cells = 20000
    Number of faces shared with processor 1 = 1000
    Number of faces shared with processor 4 = 800
    Number of faces shared with processor 6 = 800
    Number of processor patches = 3
    Number of processor faces = 2600
    Number of boundary faces = 2000

Processor 6
    Number of cells = 20000
    Number of faces shared with processor 2 = 1000
    Number of faces shared with processor 5 = 800
    Number of faces shared with processor 7 = 800
    Number of processor patches = 3
    Number of processor faces = 2600
    Number of boundary faces = 2000

Processor 7
    Number of cells = 20000
    Number of faces shared with processor 3 = 1000
    Number of faces shared with processor 6 = 800
    Number of processor patches = 2
    Number of processor faces = 1800
    Number of boundary faces = 2800

Number of processor faces = 8800
Max number of cells = 20000 (0% above average 20000)
Max number of processor patches = 3 (20% above average 2.5)
Max number of faces between processors = 2600 (18.1818% above average 2200)

Time = 0s
Processor 0: copying "/tmp/vsc46128/2237417/motorBike/motorBike/0"
 to "/tmp/vsc46128/2237417/motorBike/motorBike/processor0/0"
Processor 1: copying "/tmp/vsc46128/2237417/motorBike/motorBike/0"
 to "/tmp/vsc46128/2237417/motorBike/motorBike/processor1/0"
Processor 2: copying "/tmp/vsc46128/2237417/motorBike/motorBike/0"
 to "/tmp/vsc46128/2237417/motorBike/motorBike/processor2/0"
Processor 3: copying "/tmp/vsc46128/2237417/motorBike/motorBike/0"
 to "/tmp/vsc46128/2237417/motorBike/motorBike/processor3/0"
Processor 4: copying "/tmp/vsc46128/2237417/motorBike/motorBike/0"
 to "/tmp/vsc46128/2237417/motorBike/motorBike/processor4/0"
Processor 5: copying "/tmp/vsc46128/2237417/motorBike/motorBike/0"
 to "/tmp/vsc46128/2237417/motorBike/motorBike/processor5/0"
Processor 6: copying "/tmp/vsc46128/2237417/motorBike/motorBike/0"
 to "/tmp/vsc46128/2237417/motorBike/motorBike/processor6/0"
Processor 7: copying "/tmp/vsc46128/2237417/motorBike/motorBike/0"
 to "/tmp/vsc46128/2237417/motorBike/motorBike/processor7/0"

End

--------------------------------------------------------------------------
There are not enough slots available in the system to satisfy the 8
slots that were requested by the application:

  snappyHexMesh

Either request fewer slots for your application, or make more slots
available for use.

A "slot" is the Open MPI term for an allocatable unit where we can
launch a process.  The number of slots available are defined by the
environment in which Open MPI processes are run:

  1. Hostfile, via "slots=N" clauses (N defaults to number of
     processor cores if not provided)
  2. The --host command line parameter, via a ":N" suffix on the
     hostname (N defaults to 1 if not provided)
  3. Resource manager (e.g., SLURM, PBS/Torque, LSF, etc.)
  4. If none of a hostfile, the --host command line parameter, or an
     RM is present, Open MPI defaults to the number of processor cores

In all the above cases, if you want Open MPI to default to the number
of hardware threads instead of the number of processor cores, use the
--use-hwthread-cpus option.

Alternatively, you can use the --oversubscribe option to ignore the
number of available slots when deciding the number of processes to
launch.
--------------------------------------------------------------------------
/*---------------------------------------------------------------------------*\
  =========                 |
  \\      /  F ield         | OpenFOAM: The Open Source CFD Toolbox
   \\    /   O peration     | Website:  https://openfoam.org
    \\  /    A nd           | Version:  11
     \\/     M anipulation  |
\*---------------------------------------------------------------------------*/
Build  : 11
Exec   : reconstructPar -constant
Date   : Apr 30 2024
Time   : 13:34:59
Host   : "node4011.donphan.os"
PID    : 2238477
I/O    : uncollated
Case   : /tmp/vsc46128/2237417/motorBike/motorBike
nProcs : 1
sigFpe : Enabling floating point exception trapping (FOAM_SIGFPE).
fileModificationChecking : Monitoring run-time modified files using timeStampMaster (fileModificationSkew 10)
allowSystemOperations : Allowing user-supplied system call operations

// * * * * * * * * * * * * * * * * * * * * * * * * * * * * * * * * * * * * * //
Create time



Reconstructing mesh region0

Time = constant

Reconstructing FV fields

No FV fields

Reconstructing point fields

No point fields

No lagrangian fields


End

/*---------------------------------------------------------------------------*\
  =========                 |
  \\      /  F ield         | OpenFOAM: The Open Source CFD Toolbox
   \\    /   O peration     | Website:  https://openfoam.org
    \\  /    A nd           | Version:  11
     \\/     M anipulation  |
\*---------------------------------------------------------------------------*/
Build  : 11
Exec   : renumberMesh -constant -overwrite
Date   : Apr 30 2024
Time   : 13:35:00
Host   : "node4011.donphan.os"
PID    : 2238479
I/O    : uncollated
Case   : /tmp/vsc46128/2237417/motorBike/motorBike
nProcs : 1
sigFpe : Enabling floating point exception trapping (FOAM_SIGFPE).
fileModificationChecking : Monitoring run-time modified files using timeStampMaster (fileModificationSkew 10)
allowSystemOperations : Allowing user-supplied system call operations

// * * * * * * * * * * * * * * * * * * * * * * * * * * * * * * * * * * * * * //
Create time

Create mesh for time = constant

Mesh size: 160000
Before renumbering :
    band           : 4000
    profile        : 6.2439e+08

Using default renumberMethod.

Selecting renumberMethod CuthillMcKee

Reading geometric fields


After renumbering :
    band           : 1640
    profile        : 2.11275e+08

Writing mesh to "constant"

End

decomposing...
New entry numberOfSubdomains 8;

New entry decomposer      multiLevel;

New entry multiLevelCoeffs
{
}

New entry scotchCoeffs
{
}

New entry level0
{
}

New entry numberOfSubdomains 1;

New entry method          scotch;

New entry level1
{
}

New entry numberOfSubdomains 8;

New entry method          scotch;

/*---------------------------------------------------------------------------*\
  =========                 |
  \\      /  F ield         | OpenFOAM: The Open Source CFD Toolbox
   \\    /   O peration     | Website:  https://openfoam.org
    \\  /    A nd           | Version:  11
     \\/     M anipulation  |
\*---------------------------------------------------------------------------*/
Build  : 11
Exec   : decomposePar -copyZero
Date   : Apr 30 2024
Time   : 13:35:00
Host   : "node4011.donphan.os"
PID    : 2238500
I/O    : uncollated
Case   : /tmp/vsc46128/2237417/motorBike/motorBike
nProcs : 1
sigFpe : Enabling floating point exception trapping (FOAM_SIGFPE).
fileModificationChecking : Monitoring run-time modified files using timeStampMaster (fileModificationSkew 10)
allowSystemOperations : Allowing user-supplied system call operations

// * * * * * * * * * * * * * * * * * * * * * * * * * * * * * * * * * * * * * //
Create time



Decomposing mesh region0

Create mesh

Calculating distribution of cells
Selecting decomposer multiLevel
Selecting decomposer scotch
Selecting decomposer scotch
decompositionMethod multiLevel :
    level 0 decomposing with scotch into 1 subdomains.
    level 1 decomposing with scotch into 8 subdomains.

Finished decomposition in 0.60339 s

Calculating original mesh data

Distributing cells to processors

Distributing faces to processors

Distributing points to processors

Constructing processor meshes

Processor 0
    Number of cells = 20052
    Number of faces shared with processor 1 = 876
    Number of faces shared with processor 2 = 1000
    Number of faces shared with processor 3 = 26
    Number of processor patches = 3
    Number of processor faces = 1902
    Number of boundary faces = 2782

Processor 1
    Number of cells = 20129
    Number of faces shared with processor 0 = 876
    Number of faces shared with processor 2 = 77
    Number of faces shared with processor 3 = 1022
    Number of faces shared with processor 4 = 827
    Number of faces shared with processor 6 = 12
    Number of processor patches = 5
    Number of processor faces = 2814
    Number of boundary faces = 2022

Processor 2
    Number of cells = 20200
    Number of faces shared with processor 0 = 1000
    Number of faces shared with processor 1 = 77
    Number of faces shared with processor 3 = 771
    Number of processor patches = 3
    Number of processor faces = 1848
    Number of boundary faces = 2828

Processor 3
    Number of cells = 19833
    Number of faces shared with processor 0 = 26
    Number of faces shared with processor 1 = 1022
    Number of faces shared with processor 2 = 771
    Number of faces shared with processor 4 = 20
    Number of faces shared with processor 6 = 840
    Number of processor patches = 5
    Number of processor faces = 2679
    Number of boundary faces = 1989

Processor 4
    Number of cells = 19801
    Number of faces shared with processor 1 = 827
    Number of faces shared with processor 3 = 20
    Number of faces shared with processor 5 = 1079
    Number of faces shared with processor 6 = 1007
    Number of faces shared with processor 7 = 32
    Number of processor patches = 5
    Number of processor faces = 2965
    Number of boundary faces = 2099

Processor 5
    Number of cells = 20189
    Number of faces shared with processor 4 = 1079
    Number of faces shared with processor 6 = 105
    Number of faces shared with processor 7 = 974
    Number of processor patches = 3
    Number of processor faces = 2158
    Number of boundary faces = 2782

Processor 6
    Number of cells = 19800
    Number of faces shared with processor 1 = 12
    Number of faces shared with processor 3 = 840
    Number of faces shared with processor 4 = 1007
    Number of faces shared with processor 5 = 105
    Number of faces shared with processor 7 = 795
    Number of processor patches = 5
    Number of processor faces = 2759
    Number of boundary faces = 1899

Processor 7
    Number of cells = 19996
    Number of faces shared with processor 4 = 32
    Number of faces shared with processor 5 = 974
    Number of faces shared with processor 6 = 795
    Number of processor patches = 3
    Number of processor faces = 1801
    Number of boundary faces = 2799

Number of processor faces = 9463
Max number of cells = 20200 (1% above average 20000)
Max number of processor patches = 5 (25% above average 4)
Max number of faces between processors = 2965 (25.3302% above average 2365.75)

Time = 0s
Processor 0: copying "/tmp/vsc46128/2237417/motorBike/motorBike/0"
 to "/tmp/vsc46128/2237417/motorBike/motorBike/processor0/0"
Processor 1: copying "/tmp/vsc46128/2237417/motorBike/motorBike/0"
 to "/tmp/vsc46128/2237417/motorBike/motorBike/processor1/0"
Processor 2: copying "/tmp/vsc46128/2237417/motorBike/motorBike/0"
 to "/tmp/vsc46128/2237417/motorBike/motorBike/processor2/0"
Processor 3: copying "/tmp/vsc46128/2237417/motorBike/motorBike/0"
 to "/tmp/vsc46128/2237417/motorBike/motorBike/processor3/0"
Processor 4: copying "/tmp/vsc46128/2237417/motorBike/motorBike/0"
 to "/tmp/vsc46128/2237417/motorBike/motorBike/processor4/0"
Processor 5: copying "/tmp/vsc46128/2237417/motorBike/motorBike/0"
 to "/tmp/vsc46128/2237417/motorBike/motorBike/processor5/0"
Processor 6: copying "/tmp/vsc46128/2237417/motorBike/motorBike/0"
 to "/tmp/vsc46128/2237417/motorBike/motorBike/processor6/0"
Processor 7: copying "/tmp/vsc46128/2237417/motorBike/motorBike/0"
 to "/tmp/vsc46128/2237417/motorBike/motorBike/processor7/0"

End

running...
New entry endTime         200;

New entry writeInterval   1000;

New entry runTimeModifiable false;

New entry functions
{
}

/*---------------------------------------------------------------------------*\
  =========                 |
  \\      /  F ield         | OpenFOAM: The Open Source CFD Toolbox
   \\    /   O peration     | Website:  https://openfoam.org
    \\  /    A nd           | Version:  11
     \\/     M anipulation  |
\*---------------------------------------------------------------------------*/
Build  : 11
Exec   : potentialFoam -parallel
Date   : Apr 30 2024
Time   : 13:35:02
Host   : "node4011.donphan.os"
PID    : 2238511
I/O    : uncollated
Case   : /tmp/vsc46128/2237417/motorBike/motorBike
nProcs : 8
Slaves : 
7
(
"node4011.donphan.os.2238512"
"node4011.donphan.os.2238513"
"node4011.donphan.os.2238514"
"node4011.donphan.os.2238515"
"node4011.donphan.os.2238516"
"node4011.donphan.os.2238517"
"node4011.donphan.os.2238518"
)

Pstream initialised with:
    floatTransfer      : false
    nProcsSimpleSum    : 0
    commsType          : nonBlocking
    polling iterations : 0
sigFpe : Enabling floating point exception trapping (FOAM_SIGFPE).
fileModificationChecking : Monitoring run-time modified files using timeStampMaster (fileModificationSkew 10)
allowSystemOperations : Allowing user-supplied system call operations

// * * * * * * * * * * * * * * * * * * * * * * * * * * * * * * * * * * * * * //
Create time

Create mesh for time = 0

Reading velocity field U

Constructing pressure field p

Constructing velocity potential field Phi

No MRF models present


Calculating potential flow
GAMG:  Solving for Phi, Initial residual = 1, Final residual = 0.027924, No Iterations 4
GAMG:  Solving for Phi, Initial residual = 0.000277432, Final residual = 2.11672e-05, No Iterations 4
GAMG:  Solving for Phi, Initial residual = 2.10956e-05, Final residual = 1.29923e-06, No Iterations 5
GAMG:  Solving for Phi, Initial residual = 1.29915e-06, Final residual = 7.90214e-08, No Iterations 5
GAMG:  Solving for Phi, Initial residual = 7.90211e-08, Final residual = 7.90211e-08, No Iterations 0
GAMG:  Solving for Phi, Initial residual = 7.90211e-08, Final residual = 7.90211e-08, No Iterations 0
GAMG:  Solving for Phi, Initial residual = 7.90211e-08, Final residual = 7.90211e-08, No Iterations 0
GAMG:  Solving for Phi, Initial residual = 7.90211e-08, Final residual = 7.90211e-08, No Iterations 0
GAMG:  Solving for Phi, Initial residual = 7.90211e-08, Final residual = 7.90211e-08, No Iterations 0
GAMG:  Solving for Phi, Initial residual = 7.90211e-08, Final residual = 7.90211e-08, No Iterations 0
GAMG:  Solving for Phi, Initial residual = 7.90211e-08, Final residual = 7.90211e-08, No Iterations 0
Continuity error = 1.59623e-05
Interpolated velocity error = 4.11612e-10
ExecutionTime = 0.143299 s  ClockTime = 0 s

End

Finalising parallel run

simpleFoam has been superseded and replaced by the more general
incompressibleFluid solver module executed by the foamRun application:

    foamRun -solver incompressibleFluid


simpleFoam has been superseded and replaced by the more general
incompressibleFluid solver module executed by the foamRun application:

    foamRun -solver incompressibleFluid


simpleFoam has been superseded and replaced by the more general
incompressibleFluid solver module executed by the foamRun application:

    foamRun -solver incompressibleFluid


simpleFoam has been superseded and replaced by the more general
incompressibleFluid solver module executed by the foamRun application:

    foamRun -solver incompressibleFluid


simpleFoam has been superseded and replaced by the more general
incompressibleFluid solver module executed by the foamRun application:

    foamRun -solver incompressibleFluid


simpleFoam has been superseded and replaced by the more general
incompressibleFluid solver module executed by the foamRun application:

    foamRun -solver incompressibleFluid


simpleFoam has been superseded and replaced by the more general
incompressibleFluid solver module executed by the foamRun application:

    foamRun -solver incompressibleFluid


simpleFoam has been superseded and replaced by the more general
incompressibleFluid solver module executed by the foamRun application:

    foamRun -solver incompressibleFluid

/*---------------------------------------------------------------------------*\
  =========                 |
  \\      /  F ield         | OpenFOAM: The Open Source CFD Toolbox
   \\    /   O peration     | Website:  https://openfoam.org
    \\  /    A nd           | Version:  11
     \\/     M anipulation  |
\*---------------------------------------------------------------------------*/
Build  : 11
Exec   : foamRun -solver incompressibleFluid -parallel
Date   : Apr 30 2024
Time   : 13:35:02
Host   : "node4011.donphan.os"
PID    : 2238554
I/O    : uncollated
Case   : /tmp/vsc46128/2237417/motorBike/motorBike
nProcs : 8
Slaves : 
7
(
"node4011.donphan.os.2238555"
"node4011.donphan.os.2238556"
"node4011.donphan.os.2238557"
"node4011.donphan.os.2238560"
"node4011.donphan.os.2238562"
"node4011.donphan.os.2238564"
"node4011.donphan.os.2238566"
)

Pstream initialised with:
    floatTransfer      : false
    nProcsSimpleSum    : 0
    commsType          : nonBlocking
    polling iterations : 0
sigFpe : Enabling floating point exception trapping (FOAM_SIGFPE).
fileModificationChecking : Monitoring run-time modified files using timeStampMaster (fileModificationSkew 10)
allowSystemOperations : Allowing user-supplied system call operations

// * * * * * * * * * * * * * * * * * * * * * * * * * * * * * * * * * * * * * //
Create time

Create mesh for time = 0

Selecting solver incompressibleFluid
Selecting viscosity model constant
Selecting turbulence model type RAS
Selecting RAS turbulence model SpalartAllmaras
Selecting patchDistMethod meshWave
RAS
{
    model           SpalartAllmaras;
    turbulence      on;
    printCoeffs     on;
    sigmaNut        0.66666;
    kappa           0.41;
    Cb1             0.1355;
    Cb2             0.622;
    Cw2             0.3;
    Cw3             2;
    Cv1             7.1;
    Cs              0.3;
}

No MRF models present


SIMPLE: No convergence criteria found


SIMPLE: Operating solver in steady-state mode with 1 outer corrector
SIMPLE: Operating solver in SIMPLE mode



Starting time loop

Time = 1s

smoothSolver:  Solving for Ux, Initial residual = 0.0605758, Final residual = 0.00271706, No Iterations 1
smoothSolver:  Solving for Uy, Initial residual = 0.037295, Final residual = 0.00188187, No Iterations 1
smoothSolver:  Solving for Uz, Initial residual = 0.0258606, Final residual = 0.0011525, No Iterations 1
GAMG:  Solving for p, Initial residual = 1, Final residual = 0.0623546, No Iterations 5
time step continuity errors : sum local = 9.44425e-07, global = -2.00768e-07, cumulative = -2.00768e-07
smoothSolver:  Solving for nuTilda, Initial residual = 1, Final residual = 0.0443764, No Iterations 1
ExecutionTime = 0.19994 s  ClockTime = 0 s

Time = 2s

smoothSolver:  Solving for Ux, Initial residual = 0.659381, Final residual = 0.0339151, No Iterations 1
smoothSolver:  Solving for Uy, Initial residual = 0.550893, Final residual = 0.0360508, No Iterations 1
smoothSolver:  Solving for Uz, Initial residual = 0.554861, Final residual = 0.034321, No Iterations 1
GAMG:  Solving for p, Initial residual = 0.125671, Final residual = 0.0114623, No Iterations 4
time step continuity errors : sum local = 2.24164e-07, global = 4.2365e-08, cumulative = -1.58403e-07
smoothSolver:  Solving for nuTilda, Initial residual = 0.217577, Final residual = 0.00993367, No Iterations 1
ExecutionTime = 0.263976 s  ClockTime = 0 s

Time = 3s

smoothSolver:  Solving for Ux, Initial residual = 0.892935, Final residual = 0.0466265, No Iterations 1
smoothSolver:  Solving for Uy, Initial residual = 0.934861, Final residual = 0.0610012, No Iterations 1
smoothSolver:  Solving for Uz, Initial residual = 0.871964, Final residual = 0.0544705, No Iterations 1
GAMG:  Solving for p, Initial residual = 0.397428, Final residual = 0.0238238, No Iterations 5
time step continuity errors : sum local = 4.65262e-07, global = 9.44198e-08, cumulative = -6.39837e-08
smoothSolver:  Solving for nuTilda, Initial residual = 0.109211, Final residual = 0.00516367, No Iterations 1
ExecutionTime = 0.329875 s  ClockTime = 0 s

Time = 4s

smoothSolver:  Solving for Ux, Initial residual = 0.346274, Final residual = 0.0181207, No Iterations 1
smoothSolver:  Solving for Uy, Initial residual = 0.374027, Final residual = 0.0242902, No Iterations 1
smoothSolver:  Solving for Uz, Initial residual = 0.50217, Final residual = 0.0315728, No Iterations 1
GAMG:  Solving for p, Initial residual = 0.621981, Final residual = 0.0369322, No Iterations 5
time step continuity errors : sum local = 6.24986e-07, global = 1.34501e-07, cumulative = 7.05176e-08
smoothSolver:  Solving for nuTilda, Initial residual = 0.0690758, Final residual = 0.00338825, No Iterations 1
ExecutionTime = 0.395455 s  ClockTime = 1 s

Time = 5s

smoothSolver:  Solving for Ux, Initial residual = 0.0928049, Final residual = 0.00410562, No Iterations 1
smoothSolver:  Solving for Uy, Initial residual = 0.0600293, Final residual = 0.00313685, No Iterations 1
smoothSolver:  Solving for Uz, Initial residual = 0.0776389, Final residual = 0.00382169, No Iterations 1
GAMG:  Solving for p, Initial residual = 0.705823, Final residual = 0.041128, No Iterations 5
time step continuity errors : sum local = 3.96922e-07, global = 8.86443e-08, cumulative = 1.59162e-07
smoothSolver:  Solving for nuTilda, Initial residual = 0.0491252, Final residual = 0.00249611, No Iterations 1
ExecutionTime = 0.461171 s  ClockTime = 1 s

Time = 6s

smoothSolver:  Solving for Ux, Initial residual = 0.653325, Final residual = 0.0335575, No Iterations 1
smoothSolver:  Solving for Uy, Initial residual = 0.576794, Final residual = 0.0373179, No Iterations 1
smoothSolver:  Solving for Uz, Initial residual = 0.567932, Final residual = 0.0355772, No Iterations 1
GAMG:  Solving for p, Initial residual = 0.0821731, Final residual = 0.00753922, No Iterations 3
time step continuity errors : sum local = 1.01109e-07, global = 1.83743e-08, cumulative = 1.77536e-07
smoothSolver:  Solving for nuTilda, Initial residual = 0.0379155, Final residual = 0.00198398, No Iterations 1
ExecutionTime = 0.522984 s  ClockTime = 1 s

Time = 7s

smoothSolver:  Solving for Ux, Initial residual = 0.77807, Final residual = 0.0399776, No Iterations 1
smoothSolver:  Solving for Uy, Initial residual = 0.841551, Final residual = 0.0542878, No Iterations 1
smoothSolver:  Solving for Uz, Initial residual = 0.837776, Final residual = 0.0526913, No Iterations 1
GAMG:  Solving for p, Initial residual = 0.315571, Final residual = 0.0301812, No Iterations 4
time step continuity errors : sum local = 4.00225e-07, global = 7.50596e-08, cumulative = 2.52596e-07
smoothSolver:  Solving for nuTilda, Initial residual = 0.0306453, Final residual = 0.00164504, No Iterations 1
ExecutionTime = 0.586759 s  ClockTime = 1 s

Time = 8s

smoothSolver:  Solving for Ux, Initial residual = 0.308458, Final residual = 0.0154836, No Iterations 1
smoothSolver:  Solving for Uy, Initial residual = 0.327604, Final residual = 0.0210588, No Iterations 1
smoothSolver:  Solving for Uz, Initial residual = 0.455625, Final residual = 0.028424, No Iterations 1
GAMG:  Solving for p, Initial residual = 0.57021, Final residual = 0.056272, No Iterations 4
time step continuity errors : sum local = 5.20774e-07, global = 9.86706e-08, cumulative = 3.51266e-07
smoothSolver:  Solving for nuTilda, Initial residual = 0.0255894, Final residual = 0.00140508, No Iterations 1
ExecutionTime = 0.650511 s  ClockTime = 1 s

Time = 9s

smoothSolver:  Solving for Ux, Initial residual = 0.149524, Final residual = 0.00668275, No Iterations 1
smoothSolver:  Solving for Uy, Initial residual = 0.100655, Final residual = 0.0052482, No Iterations 1
smoothSolver:  Solving for Uz, Initial residual = 0.122933, Final residual = 0.00642393, No Iterations 1
GAMG:  Solving for p, Initial residual = 0.54268, Final residual = 0.0314227, No Iterations 5
time step continuity errors : sum local = 2.01259e-07, global = -4.5625e-08, cumulative = 3.05641e-07
smoothSolver:  Solving for nuTilda, Initial residual = 0.0218936, Final residual = 0.00122646, No Iterations 1
ExecutionTime = 0.71609 s  ClockTime = 1 s

Time = 10s

smoothSolver:  Solving for Ux, Initial residual = 0.559982, Final residual = 0.0284038, No Iterations 1
smoothSolver:  Solving for Uy, Initial residual = 0.572502, Final residual = 0.0361926, No Iterations 1
smoothSolver:  Solving for Uz, Initial residual = 0.574684, Final residual = 0.0362047, No Iterations 1
GAMG:  Solving for p, Initial residual = 0.115142, Final residual = 0.00731144, No Iterations 3
time step continuity errors : sum local = 6.04111e-08, global = -1.31578e-08, cumulative = 2.92484e-07
smoothSolver:  Solving for nuTilda, Initial residual = 0.0190851, Final residual = 0.00108824, No Iterations 1
ExecutionTime = 0.777749 s  ClockTime = 1 s

Time = 11s

smoothSolver:  Solving for Ux, Initial residual = 0.624021, Final residual = 0.0316945, No Iterations 1
smoothSolver:  Solving for Uy, Initial residual = 0.786744, Final residual = 0.0500689, No Iterations 1
smoothSolver:  Solving for Uz, Initial residual = 0.829594, Final residual = 0.0522295, No Iterations 1
GAMG:  Solving for p, Initial residual = 0.284383, Final residual = 0.0233782, No Iterations 4
time step continuity errors : sum local = 1.82526e-07, global = -3.25035e-08, cumulative = 2.5998e-07
smoothSolver:  Solving for nuTilda, Initial residual = 0.0168894, Final residual = 0.00097822, No Iterations 1
ExecutionTime = 0.84145 s  ClockTime = 1 s

Time = 12s

smoothSolver:  Solving for Ux, Initial residual = 0.298651, Final residual = 0.0148096, No Iterations 1
smoothSolver:  Solving for Uy, Initial residual = 0.312513, Final residual = 0.020128, No Iterations 1
smoothSolver:  Solving for Uz, Initial residual = 0.414721, Final residual = 0.0257415, No Iterations 1
GAMG:  Solving for p, Initial residual = 0.550216, Final residual = 0.0511568, No Iterations 4
time step continuity errors : sum local = 2.47686e-07, global = -4.59463e-08, cumulative = 2.14034e-07
smoothSolver:  Solving for nuTilda, Initial residual = 0.0151394, Final residual = 0.000889192, No Iterations 1
ExecutionTime = 0.90501 s  ClockTime = 1 s

Time = 13s

smoothSolver:  Solving for Ux, Initial residual = 0.256399, Final residual = 0.0113527, No Iterations 1
smoothSolver:  Solving for Uy, Initial residual = 0.144682, Final residual = 0.00769547, No Iterations 1
smoothSolver:  Solving for Uz, Initial residual = 0.161753, Final residual = 0.00919794, No Iterations 1
GAMG:  Solving for p, Initial residual = 0.45597, Final residual = 0.0452536, No Iterations 4
time step continuity errors : sum local = 1.70695e-07, global = -2.54836e-08, cumulative = 1.8855e-07
smoothSolver:  Solving for nuTilda, Initial residual = 0.0137128, Final residual = 0.000815191, No Iterations 1
ExecutionTime = 0.968738 s  ClockTime = 1 s

Time = 14s

smoothSolver:  Solving for Ux, Initial residual = 0.6188, Final residual = 0.0304901, No Iterations 1
smoothSolver:  Solving for Uy, Initial residual = 0.554671, Final residual = 0.0342947, No Iterations 1
smoothSolver:  Solving for Uz, Initial residual = 0.566512, Final residual = 0.0360227, No Iterations 1
GAMG:  Solving for p, Initial residual = 0.157478, Final residual = 0.00947387, No Iterations 3
time step continuity errors : sum local = 4.54779e-08, global = 9.46882e-09, cumulative = 1.98019e-07
smoothSolver:  Solving for nuTilda, Initial residual = 0.0125254, Final residual = 0.000752404, No Iterations 1
ExecutionTime = 1.03028 s  ClockTime = 1 s

Time = 15s

smoothSolver:  Solving for Ux, Initial residual = 0.559866, Final residual = 0.0278357, No Iterations 1
smoothSolver:  Solving for Uy, Initial residual = 0.63856, Final residual = 0.0402602, No Iterations 1
smoothSolver:  Solving for Uz, Initial residual = 0.752295, Final residual = 0.0476341, No Iterations 1
GAMG:  Solving for p, Initial residual = 0.264805, Final residual = 0.0170957, No Iterations 4
time step continuity errors : sum local = 7.59285e-08, global = -1.00588e-08, cumulative = 1.8796e-07
smoothSolver:  Solving for nuTilda, Initial residual = 0.011522, Final residual = 0.000698271, No Iterations 1
ExecutionTime = 1.09393 s  ClockTime = 1 s

Time = 16s

smoothSolver:  Solving for Ux, Initial residual = 0.262522, Final residual = 0.0131747, No Iterations 1
smoothSolver:  Solving for Uy, Initial residual = 0.280399, Final residual = 0.0181471, No Iterations 1
smoothSolver:  Solving for Uz, Initial residual = 0.397514, Final residual = 0.0247509, No Iterations 1
GAMG:  Solving for p, Initial residual = 0.5018, Final residual = 0.0409824, No Iterations 4
time step continuity errors : sum local = 1.0679e-07, global = 1.79923e-08, cumulative = 2.05953e-07
smoothSolver:  Solving for nuTilda, Initial residual = 0.0106629, Final residual = 0.000650946, No Iterations 1
ExecutionTime = 1.15737 s  ClockTime = 1 s

Time = 17s

smoothSolver:  Solving for Ux, Initial residual = 0.245339, Final residual = 0.0113756, No Iterations 1
smoothSolver:  Solving for Uy, Initial residual = 0.175549, Final residual = 0.00950264, No Iterations 1
smoothSolver:  Solving for Uz, Initial residual = 0.202295, Final residual = 0.0113696, No Iterations 1
GAMG:  Solving for p, Initial residual = 0.431298, Final residual = 0.0408183, No Iterations 4
time step continuity errors : sum local = 8.10033e-08, global = 1.51615e-08, cumulative = 2.21114e-07
smoothSolver:  Solving for nuTilda, Initial residual = 0.00991805, Final residual = 0.00060902, No Iterations 1
ExecutionTime = 1.22123 s  ClockTime = 1 s

Time = 18s

smoothSolver:  Solving for Ux, Initial residual = 0.437522, Final residual = 0.0214528, No Iterations 1
smoothSolver:  Solving for Uy, Initial residual = 0.491738, Final residual = 0.0294899, No Iterations 1
smoothSolver:  Solving for Uz, Initial residual = 0.560419, Final residual = 0.0354202, No Iterations 1
GAMG:  Solving for p, Initial residual = 0.181412, Final residual = 0.0113978, No Iterations 3
time step continuity errors : sum local = 3.15425e-08, global = -6.11078e-09, cumulative = 2.15003e-07
smoothSolver:  Solving for nuTilda, Initial residual = 0.00926546, Final residual = 0.000571466, No Iterations 1
ExecutionTime = 1.2826 s  ClockTime = 1 s

Time = 19s

smoothSolver:  Solving for Ux, Initial residual = 0.427716, Final residual = 0.0213583, No Iterations 1
smoothSolver:  Solving for Uy, Initial residual = 0.568862, Final residual = 0.034989, No Iterations 1
smoothSolver:  Solving for Uz, Initial residual = 0.6794, Final residual = 0.0424312, No Iterations 1
GAMG:  Solving for p, Initial residual = 0.26617, Final residual = 0.0157541, No Iterations 4
time step continuity errors : sum local = 3.94817e-08, global = 6.23973e-09, cumulative = 2.21243e-07
smoothSolver:  Solving for nuTilda, Initial residual = 0.0086879, Final residual = 0.000537492, No Iterations 1
ExecutionTime = 1.34693 s  ClockTime = 1 s

Time = 20s

smoothSolver:  Solving for Ux, Initial residual = 0.298932, Final residual = 0.015474, No Iterations 1
smoothSolver:  Solving for Uy, Initial residual = 0.273412, Final residual = 0.017034, No Iterations 1
smoothSolver:  Solving for Uz, Initial residual = 0.306201, Final residual = 0.0180482, No Iterations 1
GAMG:  Solving for p, Initial residual = 0.471477, Final residual = 0.0324441, No Iterations 4
time step continuity errors : sum local = 4.52648e-08, global = -5.33742e-09, cumulative = 2.15906e-07
smoothSolver:  Solving for nuTilda, Initial residual = 0.0081763, Final residual = 0.00050677, No Iterations 1
ExecutionTime = 1.41067 s  ClockTime = 2 s

Time = 21s

smoothSolver:  Solving for Ux, Initial residual = 0.404765, Final residual = 0.0202983, No Iterations 1
smoothSolver:  Solving for Uy, Initial residual = 0.198158, Final residual = 0.0110565, No Iterations 1
smoothSolver:  Solving for Uz, Initial residual = 0.19437, Final residual = 0.0123769, No Iterations 1
GAMG:  Solving for p, Initial residual = 0.388555, Final residual = 0.0313438, No Iterations 4
time step continuity errors : sum local = 3.59228e-08, global = -6.66651e-09, cumulative = 2.09239e-07
smoothSolver:  Solving for nuTilda, Initial residual = 0.00771989, Final residual = 0.000478643, No Iterations 1
ExecutionTime = 1.47438 s  ClockTime = 2 s

Time = 22s

smoothSolver:  Solving for Ux, Initial residual = 0.477894, Final residual = 0.0237137, No Iterations 1
smoothSolver:  Solving for Uy, Initial residual = 0.404844, Final residual = 0.0247258, No Iterations 1
smoothSolver:  Solving for Uz, Initial residual = 0.469746, Final residual = 0.0312698, No Iterations 1
GAMG:  Solving for p, Initial residual = 0.199403, Final residual = 0.0127235, No Iterations 3
time step continuity errors : sum local = 2.00779e-08, global = 4.02766e-09, cumulative = 2.13267e-07
smoothSolver:  Solving for nuTilda, Initial residual = 0.00730734, Final residual = 0.00045279, No Iterations 1
ExecutionTime = 1.53609 s  ClockTime = 2 s

Time = 23s

smoothSolver:  Solving for Ux, Initial residual = 0.321935, Final residual = 0.0162408, No Iterations 1
smoothSolver:  Solving for Uy, Initial residual = 0.394718, Final residual = 0.0247969, No Iterations 1
smoothSolver:  Solving for Uz, Initial residual = 0.549588, Final residual = 0.0362804, No Iterations 1
GAMG:  Solving for p, Initial residual = 0.272483, Final residual = 0.0154219, No Iterations 4
time step continuity errors : sum local = 2.14566e-08, global = -3.53153e-09, cumulative = 2.09735e-07
smoothSolver:  Solving for nuTilda, Initial residual = 0.00693249, Final residual = 0.000428969, No Iterations 1
ExecutionTime = 1.59991 s  ClockTime = 2 s

Time = 24s

smoothSolver:  Solving for Ux, Initial residual = 0.171268, Final residual = 0.00853722, No Iterations 1
smoothSolver:  Solving for Uy, Initial residual = 0.221566, Final residual = 0.0138422, No Iterations 1
smoothSolver:  Solving for Uz, Initial residual = 0.267807, Final residual = 0.0170767, No Iterations 1
GAMG:  Solving for p, Initial residual = 0.475647, Final residual = 0.0295705, No Iterations 4
time step continuity errors : sum local = 2.14994e-08, global = 1.75102e-09, cumulative = 2.11486e-07
smoothSolver:  Solving for nuTilda, Initial residual = 0.00659037, Final residual = 0.00040699, No Iterations 1
ExecutionTime = 1.66367 s  ClockTime = 2 s

Time = 25s

smoothSolver:  Solving for Ux, Initial residual = 0.222141, Final residual = 0.00989455, No Iterations 1
smoothSolver:  Solving for Uy, Initial residual = 0.185438, Final residual = 0.00974516, No Iterations 1
smoothSolver:  Solving for Uz, Initial residual = 0.201114, Final residual = 0.0102925, No Iterations 1
GAMG:  Solving for p, Initial residual = 0.360192, Final residual = 0.0234917, No Iterations 4
time step continuity errors : sum local = 1.58864e-08, global = 2.74918e-09, cumulative = 2.14235e-07
smoothSolver:  Solving for nuTilda, Initial residual = 0.00627679, Final residual = 0.000386689, No Iterations 1
ExecutionTime = 1.72759 s  ClockTime = 2 s

Time = 26s

smoothSolver:  Solving for Ux, Initial residual = 0.336786, Final residual = 0.01558, No Iterations 1
smoothSolver:  Solving for Uy, Initial residual = 0.305867, Final residual = 0.0169831, No Iterations 1
smoothSolver:  Solving for Uz, Initial residual = 0.361209, Final residual = 0.0215051, No Iterations 1
GAMG:  Solving for p, Initial residual = 0.218159, Final residual = 0.0134103, No Iterations 3
time step continuity errors : sum local = 1.19444e-08, global = -2.4816e-09, cumulative = 2.11754e-07
smoothSolver:  Solving for nuTilda, Initial residual = 0.00598828, Final residual = 0.000367931, No Iterations 1
ExecutionTime = 1.78954 s  ClockTime = 2 s

Time = 27s

smoothSolver:  Solving for Ux, Initial residual = 0.3027, Final residual = 0.0162065, No Iterations 1
smoothSolver:  Solving for Uy, Initial residual = 0.299043, Final residual = 0.017218, No Iterations 1
smoothSolver:  Solving for Uz, Initial residual = 0.339234, Final residual = 0.0198064, No Iterations 1
GAMG:  Solving for p, Initial residual = 0.285532, Final residual = 0.0278092, No Iterations 3
time step continuity errors : sum local = 2.09164e-08, global = 6.86144e-10, cumulative = 2.1244e-07
smoothSolver:  Solving for nuTilda, Initial residual = 0.00572185, Final residual = 0.000350594, No Iterations 1
ExecutionTime = 1.85149 s  ClockTime = 2 s

Time = 28s

smoothSolver:  Solving for Ux, Initial residual = 0.232654, Final residual = 0.014104, No Iterations 1
smoothSolver:  Solving for Uy, Initial residual = 0.175057, Final residual = 0.0102809, No Iterations 1
smoothSolver:  Solving for Uz, Initial residual = 0.155342, Final residual = 0.00753059, No Iterations 1
GAMG:  Solving for p, Initial residual = 0.454655, Final residual = 0.0284557, No Iterations 4
time step continuity errors : sum local = 1.22819e-08, global = -1.40566e-09, cumulative = 2.11034e-07
smoothSolver:  Solving for nuTilda, Initial residual = 0.00547499, Final residual = 0.000334571, No Iterations 1
ExecutionTime = 1.91526 s  ClockTime = 2 s

Time = 29s

smoothSolver:  Solving for Ux, Initial residual = 0.236389, Final residual = 0.0136817, No Iterations 1
smoothSolver:  Solving for Uy, Initial residual = 0.155813, Final residual = 0.00885655, No Iterations 1
smoothSolver:  Solving for Uz, Initial residual = 0.149903, Final residual = 0.00938778, No Iterations 1
GAMG:  Solving for p, Initial residual = 0.357866, Final residual = 0.0211945, No Iterations 4
time step continuity errors : sum local = 8.56857e-09, global = -1.48725e-09, cumulative = 2.09547e-07
smoothSolver:  Solving for nuTilda, Initial residual = 0.00524556, Final residual = 0.00031976, No Iterations 1
ExecutionTime = 1.97924 s  ClockTime = 2 s

Time = 30s

smoothSolver:  Solving for Ux, Initial residual = 0.224085, Final residual = 0.0113985, No Iterations 1
smoothSolver:  Solving for Uy, Initial residual = 0.220685, Final residual = 0.0126044, No Iterations 1
smoothSolver:  Solving for Uz, Initial residual = 0.260625, Final residual = 0.0168668, No Iterations 1
GAMG:  Solving for p, Initial residual = 0.221936, Final residual = 0.0130506, No Iterations 3
time step continuity errors : sum local = 7.03517e-09, global = 1.37394e-09, cumulative = 2.10921e-07
smoothSolver:  Solving for nuTilda, Initial residual = 0.00503169, Final residual = 0.000306063, No Iterations 1
ExecutionTime = 2.0412 s  ClockTime = 2 s

Time = 31s

smoothSolver:  Solving for Ux, Initial residual = 0.158938, Final residual = 0.00797988, No Iterations 1
smoothSolver:  Solving for Uy, Initial residual = 0.212365, Final residual = 0.0121275, No Iterations 1
smoothSolver:  Solving for Uz, Initial residual = 0.248857, Final residual = 0.0148389, No Iterations 1
GAMG:  Solving for p, Initial residual = 0.278757, Final residual = 0.0252346, No Iterations 3
time step continuity errors : sum local = 1.13147e-08, global = -7.59942e-10, cumulative = 2.10161e-07
smoothSolver:  Solving for nuTilda, Initial residual = 0.00483176, Final residual = 0.000293389, No Iterations 1
ExecutionTime = 2.10266 s  ClockTime = 2 s

Time = 32s

smoothSolver:  Solving for Ux, Initial residual = 0.115479, Final residual = 0.00601133, No Iterations 1
smoothSolver:  Solving for Uy, Initial residual = 0.142457, Final residual = 0.00836892, No Iterations 1
smoothSolver:  Solving for Uz, Initial residual = 0.141407, Final residual = 0.00945864, No Iterations 1
GAMG:  Solving for p, Initial residual = 0.458526, Final residual = 0.0276996, No Iterations 4
time step continuity errors : sum local = 6.90332e-09, global = 8.88924e-10, cumulative = 2.1105e-07
smoothSolver:  Solving for nuTilda, Initial residual = 0.00464431, Final residual = 0.000281642, No Iterations 1
ExecutionTime = 2.16674 s  ClockTime = 2 s

Time = 33s

smoothSolver:  Solving for Ux, Initial residual = 0.152994, Final residual = 0.00795357, No Iterations 1
smoothSolver:  Solving for Uy, Initial residual = 0.121936, Final residual = 0.00773664, No Iterations 1
smoothSolver:  Solving for Uz, Initial residual = 0.121075, Final residual = 0.00954266, No Iterations 1
GAMG:  Solving for p, Initial residual = 0.356198, Final residual = 0.0329884, No Iterations 3
time step continuity errors : sum local = 8.23201e-09, global = -1.40078e-09, cumulative = 2.09649e-07
smoothSolver:  Solving for nuTilda, Initial residual = 0.00446778, Final residual = 0.000270718, No Iterations 1
ExecutionTime = 2.22828 s  ClockTime = 2 s

Time = 34s

smoothSolver:  Solving for Ux, Initial residual = 0.191977, Final residual = 0.00963013, No Iterations 1
smoothSolver:  Solving for Uy, Initial residual = 0.154781, Final residual = 0.00980767, No Iterations 1
smoothSolver:  Solving for Uz, Initial residual = 0.154644, Final residual = 0.0114776, No Iterations 1
GAMG:  Solving for p, Initial residual = 0.238583, Final residual = 0.011841, No Iterations 3
time step continuity errors : sum local = 3.67813e-09, global = -5.06989e-10, cumulative = 2.09142e-07
smoothSolver:  Solving for nuTilda, Initial residual = 0.00430114, Final residual = 0.000260535, No Iterations 1
ExecutionTime = 2.28987 s  ClockTime = 2 s

Time = 35s

smoothSolver:  Solving for Ux, Initial residual = 0.162053, Final residual = 0.00859703, No Iterations 1
smoothSolver:  Solving for Uy, Initial residual = 0.150725, Final residual = 0.00953785, No Iterations 1
smoothSolver:  Solving for Uz, Initial residual = 0.146402, Final residual = 0.0107559, No Iterations 1
GAMG:  Solving for p, Initial residual = 0.283502, Final residual = 0.0245608, No Iterations 3
time step continuity errors : sum local = 6.43071e-09, global = 8.00599e-10, cumulative = 2.09943e-07
smoothSolver:  Solving for nuTilda, Initial residual = 0.00414343, Final residual = 0.000251014, No Iterations 1
ExecutionTime = 2.35132 s  ClockTime = 3 s

Time = 36s

smoothSolver:  Solving for Ux, Initial residual = 0.114704, Final residual = 0.00613299, No Iterations 1
smoothSolver:  Solving for Uy, Initial residual = 0.119551, Final residual = 0.00707891, No Iterations 1
smoothSolver:  Solving for Uz, Initial residual = 0.114148, Final residual = 0.00736398, No Iterations 1
GAMG:  Solving for p, Initial residual = 0.464807, Final residual = 0.025993, No Iterations 4
time step continuity errors : sum local = 3.75557e-09, global = -5.10575e-10, cumulative = 2.09432e-07
smoothSolver:  Solving for nuTilda, Initial residual = 0.00399415, Final residual = 0.000242101, No Iterations 1
ExecutionTime = 2.41498 s  ClockTime = 3 s

Time = 37s

smoothSolver:  Solving for Ux, Initial residual = 0.103334, Final residual = 0.00463494, No Iterations 1
smoothSolver:  Solving for Uy, Initial residual = 0.10583, Final residual = 0.00499578, No Iterations 1
smoothSolver:  Solving for Uz, Initial residual = 0.109237, Final residual = 0.00564662, No Iterations 1
GAMG:  Solving for p, Initial residual = 0.373324, Final residual = 0.0294253, No Iterations 3
time step continuity errors : sum local = 4.29185e-09, global = 6.07167e-10, cumulative = 2.10039e-07
smoothSolver:  Solving for nuTilda, Initial residual = 0.00385275, Final residual = 0.000233738, No Iterations 1
ExecutionTime = 2.47664 s  ClockTime = 3 s

Time = 38s

smoothSolver:  Solving for Ux, Initial residual = 0.104338, Final residual = 0.00491743, No Iterations 1
smoothSolver:  Solving for Uy, Initial residual = 0.112283, Final residual = 0.00539227, No Iterations 1
smoothSolver:  Solving for Uz, Initial residual = 0.121717, Final residual = 0.00564709, No Iterations 1
GAMG:  Solving for p, Initial residual = 0.260706, Final residual = 0.0256002, No Iterations 2
time step continuity errors : sum local = 4.54659e-09, global = -5.01408e-10, cumulative = 2.09538e-07
smoothSolver:  Solving for nuTilda, Initial residual = 0.0037186, Final residual = 0.000225862, No Iterations 1
ExecutionTime = 2.53606 s  ClockTime = 3 s

Time = 39s

smoothSolver:  Solving for Ux, Initial residual = 0.104246, Final residual = 0.00620332, No Iterations 1
smoothSolver:  Solving for Uy, Initial residual = 0.106072, Final residual = 0.00532821, No Iterations 1
smoothSolver:  Solving for Uz, Initial residual = 0.117341, Final residual = 0.00520755, No Iterations 1
GAMG:  Solving for p, Initial residual = 0.277134, Final residual = 0.0218996, No Iterations 3
time step continuity errors : sum local = 3.69217e-09, global = -6.23003e-10, cumulative = 2.08915e-07
smoothSolver:  Solving for nuTilda, Initial residual = 0.00359111, Final residual = 0.000218416, No Iterations 1
ExecutionTime = 2.59736 s  ClockTime = 3 s

Time = 40s

smoothSolver:  Solving for Ux, Initial residual = 0.098672, Final residual = 0.00655802, No Iterations 1
smoothSolver:  Solving for Uy, Initial residual = 0.0828859, Final residual = 0.00448371, No Iterations 1
smoothSolver:  Solving for Uz, Initial residual = 0.0996536, Final residual = 0.00465718, No Iterations 1
GAMG:  Solving for p, Initial residual = 0.474147, Final residual = 0.0426714, No Iterations 3
time step continuity errors : sum local = 3.66618e-09, global = -4.56973e-10, cumulative = 2.08458e-07
smoothSolver:  Solving for nuTilda, Initial residual = 0.0034698, Final residual = 0.000211347, No Iterations 1
ExecutionTime = 2.65887 s  ClockTime = 3 s

Time = 41s

smoothSolver:  Solving for Ux, Initial residual = 0.108197, Final residual = 0.0066611, No Iterations 1
smoothSolver:  Solving for Uy, Initial residual = 0.0760167, Final residual = 0.00449434, No Iterations 1
smoothSolver:  Solving for Uz, Initial residual = 0.0924336, Final residual = 0.00529705, No Iterations 1
GAMG:  Solving for p, Initial residual = 0.377036, Final residual = 0.0249365, No Iterations 3
time step continuity errors : sum local = 2.26178e-09, global = -2.17715e-10, cumulative = 2.0824e-07
smoothSolver:  Solving for nuTilda, Initial residual = 0.0033542, Final residual = 0.00020461, No Iterations 1
ExecutionTime = 2.7206 s  ClockTime = 3 s

Time = 42s

smoothSolver:  Solving for Ux, Initial residual = 0.106655, Final residual = 0.00572776, No Iterations 1
smoothSolver:  Solving for Uy, Initial residual = 0.0833953, Final residual = 0.00481852, No Iterations 1
smoothSolver:  Solving for Uz, Initial residual = 0.094932, Final residual = 0.00574077, No Iterations 1
GAMG:  Solving for p, Initial residual = 0.25957, Final residual = 0.0256614, No Iterations 2
time step continuity errors : sum local = 2.89917e-09, global = 2.05867e-10, cumulative = 2.08446e-07
smoothSolver:  Solving for nuTilda, Initial residual = 0.00324389, Final residual = 0.000198164, No Iterations 1
ExecutionTime = 2.78023 s  ClockTime = 3 s

Time = 43s

smoothSolver:  Solving for Ux, Initial residual = 0.0889841, Final residual = 0.00452011, No Iterations 1
smoothSolver:  Solving for Uy, Initial residual = 0.0875262, Final residual = 0.00476843, No Iterations 1
smoothSolver:  Solving for Uz, Initial residual = 0.101251, Final residual = 0.00582487, No Iterations 1
GAMG:  Solving for p, Initial residual = 0.265787, Final residual = 0.0186373, No Iterations 3
time step continuity errors : sum local = 2.00382e-09, global = 3.95378e-10, cumulative = 2.08842e-07
smoothSolver:  Solving for nuTilda, Initial residual = 0.00313852, Final residual = 0.000191973, No Iterations 1
ExecutionTime = 2.84178 s  ClockTime = 3 s

Time = 44s

smoothSolver:  Solving for Ux, Initial residual = 0.0665407, Final residual = 0.00348598, No Iterations 1
smoothSolver:  Solving for Uy, Initial residual = 0.0817648, Final residual = 0.00430969, No Iterations 1
smoothSolver:  Solving for Uz, Initial residual = 0.100356, Final residual = 0.00555095, No Iterations 1
GAMG:  Solving for p, Initial residual = 0.438859, Final residual = 0.0360288, No Iterations 3
time step continuity errors : sum local = 2.00977e-09, global = 2.34325e-10, cumulative = 2.09076e-07
smoothSolver:  Solving for nuTilda, Initial residual = 0.00303772, Final residual = 0.000186006, No Iterations 1
ExecutionTime = 2.90322 s  ClockTime = 3 s

Time = 45s

smoothSolver:  Solving for Ux, Initial residual = 0.0698353, Final residual = 0.00360329, No Iterations 1
smoothSolver:  Solving for Uy, Initial residual = 0.0730761, Final residual = 0.00375016, No Iterations 1
smoothSolver:  Solving for Uz, Initial residual = 0.0942004, Final residual = 0.00501384, No Iterations 1
GAMG:  Solving for p, Initial residual = 0.375922, Final residual = 0.0236345, No Iterations 3
time step continuity errors : sum local = 1.34174e-09, global = 8.00268e-11, cumulative = 2.09156e-07
smoothSolver:  Solving for nuTilda, Initial residual = 0.0029412, Final residual = 0.000180238, No Iterations 1
ExecutionTime = 2.96464 s  ClockTime = 3 s

Time = 46s

smoothSolver:  Solving for Ux, Initial residual = 0.0799988, Final residual = 0.00425194, No Iterations 1
smoothSolver:  Solving for Uy, Initial residual = 0.0697339, Final residual = 0.00367979, No Iterations 1
smoothSolver:  Solving for Uz, Initial residual = 0.0893097, Final residual = 0.00467389, No Iterations 1
GAMG:  Solving for p, Initial residual = 0.267659, Final residual = 0.025241, No Iterations 2
time step continuity errors : sum local = 1.80377e-09, global = -1.20185e-10, cumulative = 2.09036e-07
smoothSolver:  Solving for nuTilda, Initial residual = 0.00284868, Final residual = 0.000174648, No Iterations 1
ExecutionTime = 3.02403 s  ClockTime = 3 s

Time = 47s

smoothSolver:  Solving for Ux, Initial residual = 0.0824492, Final residual = 0.00489183, No Iterations 1
smoothSolver:  Solving for Uy, Initial residual = 0.0660822, Final residual = 0.0035828, No Iterations 1
smoothSolver:  Solving for Uz, Initial residual = 0.0887558, Final residual = 0.00461452, No Iterations 1
GAMG:  Solving for p, Initial residual = 0.266552, Final residual = 0.0158051, No Iterations 3
time step continuity errors : sum local = 1.07595e-09, global = -2.22787e-10, cumulative = 2.08813e-07
smoothSolver:  Solving for nuTilda, Initial residual = 0.0027599, Final residual = 0.000169219, No Iterations 1
ExecutionTime = 3.08564 s  ClockTime = 3 s

Time = 48s

smoothSolver:  Solving for Ux, Initial residual = 0.0775958, Final residual = 0.00512649, No Iterations 1
smoothSolver:  Solving for Uy, Initial residual = 0.0626479, Final residual = 0.00338457, No Iterations 1
smoothSolver:  Solving for Uz, Initial residual = 0.0887373, Final residual = 0.0045535, No Iterations 1
GAMG:  Solving for p, Initial residual = 0.428598, Final residual = 0.0306999, No Iterations 3
time step continuity errors : sum local = 1.09023e-09, global = -1.29499e-10, cumulative = 2.08683e-07
smoothSolver:  Solving for nuTilda, Initial residual = 0.00267465, Final residual = 0.000163939, No Iterations 1
ExecutionTime = 3.14708 s  ClockTime = 3 s

Time = 49s

smoothSolver:  Solving for Ux, Initial residual = 0.0745091, Final residual = 0.0050023, No Iterations 1
smoothSolver:  Solving for Uy, Initial residual = 0.0624271, Final residual = 0.00336, No Iterations 1
smoothSolver:  Solving for Uz, Initial residual = 0.0869797, Final residual = 0.0042581, No Iterations 1
GAMG:  Solving for p, Initial residual = 0.362081, Final residual = 0.0212522, No Iterations 3
time step continuity errors : sum local = 7.7416e-10, global = -3.41305e-11, cumulative = 2.08649e-07
smoothSolver:  Solving for nuTilda, Initial residual = 0.00259269, Final residual = 0.000158798, No Iterations 1
ExecutionTime = 3.20879 s  ClockTime = 3 s

Time = 50s

smoothSolver:  Solving for Ux, Initial residual = 0.0697664, Final residual = 0.00457386, No Iterations 1
smoothSolver:  Solving for Uy, Initial residual = 0.0637612, Final residual = 0.00348018, No Iterations 1
smoothSolver:  Solving for Uz, Initial residual = 0.0850573, Final residual = 0.0040872, No Iterations 1
GAMG:  Solving for p, Initial residual = 0.266669, Final residual = 0.0245436, No Iterations 2
time step continuity errors : sum local = 1.09944e-09, global = -8.87048e-12, cumulative = 2.0864e-07
smoothSolver:  Solving for nuTilda, Initial residual = 0.00251383, Final residual = 0.000153788, No Iterations 1
ExecutionTime = 3.26862 s  ClockTime = 3 s

Time = 51s

smoothSolver:  Solving for Ux, Initial residual = 0.0645612, Final residual = 0.00435845, No Iterations 1
smoothSolver:  Solving for Uy, Initial residual = 0.0636495, Final residual = 0.00353995, No Iterations 1
smoothSolver:  Solving for Uz, Initial residual = 0.085576, Final residual = 0.00403246, No Iterations 1
GAMG:  Solving for p, Initial residual = 0.279321, Final residual = 0.0152376, No Iterations 3
time step continuity errors : sum local = 6.23995e-10, global = 1.24382e-10, cumulative = 2.08765e-07
smoothSolver:  Solving for nuTilda, Initial residual = 0.00243787, Final residual = 0.000148903, No Iterations 1
ExecutionTime = 3.33038 s  ClockTime = 3 s

Time = 52s

smoothSolver:  Solving for Ux, Initial residual = 0.0625301, Final residual = 0.00452235, No Iterations 1
smoothSolver:  Solving for Uy, Initial residual = 0.0618711, Final residual = 0.00345652, No Iterations 1
smoothSolver:  Solving for Uz, Initial residual = 0.0858349, Final residual = 0.00426336, No Iterations 1
GAMG:  Solving for p, Initial residual = 0.428843, Final residual = 0.0256485, No Iterations 3
time step continuity errors : sum local = 5.7218e-10, global = 6.99449e-11, cumulative = 2.08835e-07
smoothSolver:  Solving for nuTilda, Initial residual = 0.00236457, Final residual = 0.000144137, No Iterations 1
ExecutionTime = 3.39234 s  ClockTime = 4 s

Time = 53s

smoothSolver:  Solving for Ux, Initial residual = 0.0655927, Final residual = 0.00473696, No Iterations 1
smoothSolver:  Solving for Uy, Initial residual = 0.0590208, Final residual = 0.00337868, No Iterations 1
smoothSolver:  Solving for Uz, Initial residual = 0.0826733, Final residual = 0.00432246, No Iterations 1
GAMG:  Solving for p, Initial residual = 0.360282, Final residual = 0.0196904, No Iterations 3
time step continuity errors : sum local = 4.62111e-10, global = 1.33042e-11, cumulative = 2.08848e-07
smoothSolver:  Solving for nuTilda, Initial residual = 0.00229372, Final residual = 0.000139483, No Iterations 1
ExecutionTime = 3.45441 s  ClockTime = 4 s

Time = 54s

smoothSolver:  Solving for Ux, Initial residual = 0.0676324, Final residual = 0.00469094, No Iterations 1
smoothSolver:  Solving for Uy, Initial residual = 0.0561607, Final residual = 0.00327708, No Iterations 1
smoothSolver:  Solving for Uz, Initial residual = 0.0787949, Final residual = 0.00432082, No Iterations 1
GAMG:  Solving for p, Initial residual = 0.272589, Final residual = 0.0241406, No Iterations 2
time step continuity errors : sum local = 6.80325e-10, global = 3.30747e-11, cumulative = 2.08881e-07
smoothSolver:  Solving for nuTilda, Initial residual = 0.00222517, Final residual = 0.000134942, No Iterations 1
ExecutionTime = 3.51377 s  ClockTime = 4 s

Time = 55s

smoothSolver:  Solving for Ux, Initial residual = 0.0662635, Final residual = 0.00444672, No Iterations 1
smoothSolver:  Solving for Uy, Initial residual = 0.054502, Final residual = 0.00311778, No Iterations 1
smoothSolver:  Solving for Uz, Initial residual = 0.0772349, Final residual = 0.00421655, No Iterations 1
GAMG:  Solving for p, Initial residual = 0.293343, Final residual = 0.0152022, No Iterations 3
time step continuity errors : sum local = 3.79697e-10, global = -7.93223e-11, cumulative = 2.08802e-07
smoothSolver:  Solving for nuTilda, Initial residual = 0.00215885, Final residual = 0.000130518, No Iterations 1
ExecutionTime = 3.57535 s  ClockTime = 4 s

Time = 56s

smoothSolver:  Solving for Ux, Initial residual = 0.0622593, Final residual = 0.00423634, No Iterations 1
smoothSolver:  Solving for Uy, Initial residual = 0.0546329, Final residual = 0.00298121, No Iterations 1
smoothSolver:  Solving for Uz, Initial residual = 0.079288, Final residual = 0.00442365, No Iterations 1
GAMG:  Solving for p, Initial residual = 0.403042, Final residual = 0.0191315, No Iterations 3
time step continuity errors : sum local = 2.92459e-10, global = -4.42152e-11, cumulative = 2.08758e-07
smoothSolver:  Solving for nuTilda, Initial residual = 0.0020947, Final residual = 0.000126214, No Iterations 1
ExecutionTime = 3.63711 s  ClockTime = 4 s

Time = 57s

smoothSolver:  Solving for Ux, Initial residual = 0.0589006, Final residual = 0.00391408, No Iterations 1
smoothSolver:  Solving for Uy, Initial residual = 0.0552767, Final residual = 0.00305296, No Iterations 1
smoothSolver:  Solving for Uz, Initial residual = 0.0805305, Final residual = 0.00475176, No Iterations 1
GAMG:  Solving for p, Initial residual = 0.365493, Final residual = 0.0176399, No Iterations 3
time step continuity errors : sum local = 2.62709e-10, global = -1.24106e-11, cumulative = 2.08745e-07
smoothSolver:  Solving for nuTilda, Initial residual = 0.00203261, Final residual = 0.000122031, No Iterations 1
ExecutionTime = 3.6991 s  ClockTime = 4 s

Time = 58s

smoothSolver:  Solving for Ux, Initial residual = 0.0564562, Final residual = 0.00347054, No Iterations 1
smoothSolver:  Solving for Uy, Initial residual = 0.0554824, Final residual = 0.00328681, No Iterations 1
smoothSolver:  Solving for Uz, Initial residual = 0.0799741, Final residual = 0.00507914, No Iterations 1
GAMG:  Solving for p, Initial residual = 0.299137, Final residual = 0.0239986, No Iterations 2
time step continuity errors : sum local = 4.18848e-10, global = 1.49888e-11, cumulative = 2.0876e-07
smoothSolver:  Solving for nuTilda, Initial residual = 0.00197247, Final residual = 0.000117969, No Iterations 1
ExecutionTime = 3.75846 s  ClockTime = 4 s

Time = 59s

smoothSolver:  Solving for Ux, Initial residual = 0.0548741, Final residual = 0.00301041, No Iterations 1
smoothSolver:  Solving for Uy, Initial residual = 0.0551982, Final residual = 0.00344802, No Iterations 1
smoothSolver:  Solving for Uz, Initial residual = 0.0791413, Final residual = 0.00542224, No Iterations 1
GAMG:  Solving for p, Initial residual = 0.299704, Final residual = 0.0273143, No Iterations 2
time step continuity errors : sum local = 4.60232e-10, global = -4.51023e-11, cumulative = 2.08715e-07
smoothSolver:  Solving for nuTilda, Initial residual = 0.00191418, Final residual = 0.000114027, No Iterations 1
ExecutionTime = 3.818 s  ClockTime = 4 s

Time = 60s

smoothSolver:  Solving for Ux, Initial residual = 0.0540291, Final residual = 0.0027255, No Iterations 1
smoothSolver:  Solving for Uy, Initial residual = 0.0546764, Final residual = 0.00351793, No Iterations 1
smoothSolver:  Solving for Uz, Initial residual = 0.0792462, Final residual = 0.00568229, No Iterations 1
GAMG:  Solving for p, Initial residual = 0.405317, Final residual = 0.0358502, No Iterations 2
time step continuity errors : sum local = 4.016e-10, global = -4.61279e-11, cumulative = 2.08669e-07
smoothSolver:  Solving for nuTilda, Initial residual = 0.00185763, Final residual = 0.000110203, No Iterations 1
ExecutionTime = 3.87741 s  ClockTime = 4 s

Time = 61s

smoothSolver:  Solving for Ux, Initial residual = 0.0540366, Final residual = 0.00256832, No Iterations 1
smoothSolver:  Solving for Uy, Initial residual = 0.0537825, Final residual = 0.00349261, No Iterations 1
smoothSolver:  Solving for Uz, Initial residual = 0.078883, Final residual = 0.00580275, No Iterations 1
GAMG:  Solving for p, Initial residual = 0.398877, Final residual = 0.0318924, No Iterations 2
time step continuity errors : sum local = 3.23219e-10, global = -2.10254e-11, cumulative = 2.08648e-07
smoothSolver:  Solving for nuTilda, Initial residual = 0.00180274, Final residual = 0.000106496, No Iterations 1
ExecutionTime = 3.93705 s  ClockTime = 4 s

Time = 62s

smoothSolver:  Solving for Ux, Initial residual = 0.0537988, Final residual = 0.00245384, No Iterations 1
smoothSolver:  Solving for Uy, Initial residual = 0.0524672, Final residual = 0.00340754, No Iterations 1
smoothSolver:  Solving for Uz, Initial residual = 0.0774468, Final residual = 0.00576906, No Iterations 1
GAMG:  Solving for p, Initial residual = 0.324704, Final residual = 0.0236617, No Iterations 2
time step continuity errors : sum local = 2.77803e-10, global = -2.07792e-11, cumulative = 2.08627e-07
smoothSolver:  Solving for nuTilda, Initial residual = 0.00174941, Final residual = 0.000102902, No Iterations 1
ExecutionTime = 3.99643 s  ClockTime = 4 s

Time = 63s

smoothSolver:  Solving for Ux, Initial residual = 0.0528325, Final residual = 0.00239149, No Iterations 1
smoothSolver:  Solving for Uy, Initial residual = 0.0513168, Final residual = 0.00332821, No Iterations 1
smoothSolver:  Solving for Uz, Initial residual = 0.0756068, Final residual = 0.0056273, No Iterations 1
GAMG:  Solving for p, Initial residual = 0.336907, Final residual = 0.0264013, No Iterations 2
time step continuity errors : sum local = 2.96004e-10, global = 1.48664e-11, cumulative = 2.08642e-07
smoothSolver:  Solving for nuTilda, Initial residual = 0.00169758, Final residual = 9.94194e-05, No Iterations 1
ExecutionTime = 4.05606 s  ClockTime = 4 s

Time = 64s

smoothSolver:  Solving for Ux, Initial residual = 0.0513426, Final residual = 0.0023683, No Iterations 1
smoothSolver:  Solving for Uy, Initial residual = 0.0506415, Final residual = 0.00325285, No Iterations 1
smoothSolver:  Solving for Uz, Initial residual = 0.0745724, Final residual = 0.00546315, No Iterations 1
GAMG:  Solving for p, Initial residual = 0.442402, Final residual = 0.0368208, No Iterations 2
time step continuity errors : sum local = 2.92913e-10, global = 2.77383e-11, cumulative = 2.0867e-07
smoothSolver:  Solving for nuTilda, Initial residual = 0.00164716, Final residual = 9.60429e-05, No Iterations 1
ExecutionTime = 4.11574 s  ClockTime = 4 s

Time = 65s

smoothSolver:  Solving for Ux, Initial residual = 0.0503914, Final residual = 0.00246842, No Iterations 1
smoothSolver:  Solving for Uy, Initial residual = 0.0503283, Final residual = 0.0031467, No Iterations 1
smoothSolver:  Solving for Uz, Initial residual = 0.0742342, Final residual = 0.00521165, No Iterations 1
GAMG:  Solving for p, Initial residual = 0.401099, Final residual = 0.028666, No Iterations 2
time step continuity errors : sum local = 2.29664e-10, global = 2.5872e-11, cumulative = 2.08696e-07
smoothSolver:  Solving for nuTilda, Initial residual = 0.00159808, Final residual = 9.27685e-05, No Iterations 1
ExecutionTime = 4.17546 s  ClockTime = 4 s

Time = 66s

smoothSolver:  Solving for Ux, Initial residual = 0.0501349, Final residual = 0.002684, No Iterations 1
smoothSolver:  Solving for Uy, Initial residual = 0.0498538, Final residual = 0.00298375, No Iterations 1
smoothSolver:  Solving for Uz, Initial residual = 0.0732384, Final residual = 0.0048495, No Iterations 1
GAMG:  Solving for p, Initial residual = 0.326683, Final residual = 0.0234484, No Iterations 2
time step continuity errors : sum local = 2.15031e-10, global = 2.30243e-11, cumulative = 2.08719e-07
smoothSolver:  Solving for nuTilda, Initial residual = 0.00155028, Final residual = 8.95915e-05, No Iterations 1
ExecutionTime = 4.2352 s  ClockTime = 4 s

Time = 67s

smoothSolver:  Solving for Ux, Initial residual = 0.0503563, Final residual = 0.00286472, No Iterations 1
smoothSolver:  Solving for Uy, Initial residual = 0.0491804, Final residual = 0.00280352, No Iterations 1
smoothSolver:  Solving for Uz, Initial residual = 0.0716137, Final residual = 0.00442373, No Iterations 1
GAMG:  Solving for p, Initial residual = 0.323499, Final residual = 0.0205696, No Iterations 2
time step continuity errors : sum local = 1.82557e-10, global = 2.03665e-12, cumulative = 2.08721e-07
smoothSolver:  Solving for nuTilda, Initial residual = 0.00150371, Final residual = 8.6507e-05, No Iterations 1
ExecutionTime = 4.29456 s  ClockTime = 4 s

Time = 68s

smoothSolver:  Solving for Ux, Initial residual = 0.0507755, Final residual = 0.0029847, No Iterations 1
smoothSolver:  Solving for Uy, Initial residual = 0.0483173, Final residual = 0.0026924, No Iterations 1
smoothSolver:  Solving for Uz, Initial residual = 0.0701649, Final residual = 0.00421366, No Iterations 1
GAMG:  Solving for p, Initial residual = 0.378139, Final residual = 0.0259804, No Iterations 2
time step continuity errors : sum local = 1.85871e-10, global = -1.83948e-11, cumulative = 2.08702e-07
smoothSolver:  Solving for nuTilda, Initial residual = 0.0014583, Final residual = 8.35101e-05, No Iterations 1
ExecutionTime = 4.35385 s  ClockTime = 5 s

Time = 69s

smoothSolver:  Solving for Ux, Initial residual = 0.0510725, Final residual = 0.0030588, No Iterations 1
smoothSolver:  Solving for Uy, Initial residual = 0.0474819, Final residual = 0.00263246, No Iterations 1
smoothSolver:  Solving for Uz, Initial residual = 0.0700562, Final residual = 0.00415807, No Iterations 1
GAMG:  Solving for p, Initial residual = 0.465879, Final residual = 0.0293448, No Iterations 2
time step continuity errors : sum local = 1.53681e-10, global = -1.66655e-11, cumulative = 2.08686e-07
smoothSolver:  Solving for nuTilda, Initial residual = 0.00141401, Final residual = 8.05959e-05, No Iterations 1
ExecutionTime = 4.41336 s  ClockTime = 5 s

Time = 70s

smoothSolver:  Solving for Ux, Initial residual = 0.051072, Final residual = 0.0031063, No Iterations 1
smoothSolver:  Solving for Uy, Initial residual = 0.0467336, Final residual = 0.00256894, No Iterations 1
smoothSolver:  Solving for Uz, Initial residual = 0.0702683, Final residual = 0.00409277, No Iterations 1
GAMG:  Solving for p, Initial residual = 0.365197, Final residual = 0.0207226, No Iterations 2
time step continuity errors : sum local = 1.25952e-10, global = -1.00216e-11, cumulative = 2.08676e-07
smoothSolver:  Solving for nuTilda, Initial residual = 0.00137079, Final residual = 7.77594e-05, No Iterations 1
ExecutionTime = 4.47248 s  ClockTime = 5 s

Time = 71s

smoothSolver:  Solving for Ux, Initial residual = 0.0507601, Final residual = 0.00311029, No Iterations 1
smoothSolver:  Solving for Uy, Initial residual = 0.046209, Final residual = 0.00252571, No Iterations 1
smoothSolver:  Solving for Uz, Initial residual = 0.0703678, Final residual = 0.00397931, No Iterations 1
GAMG:  Solving for p, Initial residual = 0.351198, Final residual = 0.0223212, No Iterations 2
time step continuity errors : sum local = 1.31377e-10, global = -2.11342e-11, cumulative = 2.08654e-07
smoothSolver:  Solving for nuTilda, Initial residual = 0.0013286, Final residual = 7.4996e-05, No Iterations 1
ExecutionTime = 4.532 s  ClockTime = 5 s

Time = 72s

smoothSolver:  Solving for Ux, Initial residual = 0.0502653, Final residual = 0.00308804, No Iterations 1
smoothSolver:  Solving for Uy, Initial residual = 0.0459917, Final residual = 0.00249127, No Iterations 1
smoothSolver:  Solving for Uz, Initial residual = 0.0698854, Final residual = 0.00381221, No Iterations 1
GAMG:  Solving for p, Initial residual = 0.345345, Final residual = 0.0190196, No Iterations 2
time step continuity errors : sum local = 1.07303e-10, global = 2.61033e-12, cumulative = 2.08657e-07
smoothSolver:  Solving for nuTilda, Initial residual = 0.00128739, Final residual = 7.23015e-05, No Iterations 1
ExecutionTime = 4.5916 s  ClockTime = 5 s

Time = 73s

smoothSolver:  Solving for Ux, Initial residual = 0.0497294, Final residual = 0.00306857, No Iterations 1
smoothSolver:  Solving for Uy, Initial residual = 0.0458891, Final residual = 0.00245126, No Iterations 1
smoothSolver:  Solving for Uz, Initial residual = 0.0693164, Final residual = 0.00363042, No Iterations 1
GAMG:  Solving for p, Initial residual = 0.400558, Final residual = 0.0198541, No Iterations 2
time step continuity errors : sum local = 8.91598e-11, global = 6.56112e-12, cumulative = 2.08664e-07
smoothSolver:  Solving for nuTilda, Initial residual = 0.00124712, Final residual = 6.96718e-05, No Iterations 1
ExecutionTime = 4.65162 s  ClockTime = 5 s

Time = 74s

smoothSolver:  Solving for Ux, Initial residual = 0.0494666, Final residual = 0.00305826, No Iterations 1
smoothSolver:  Solving for Uy, Initial residual = 0.0457092, Final residual = 0.00239304, No Iterations 1
smoothSolver:  Solving for Uz, Initial residual = 0.068869, Final residual = 0.0034428, No Iterations 1
GAMG:  Solving for p, Initial residual = 0.328775, Final residual = 0.0116284, No Iterations 2
time step continuity errors : sum local = 5.86327e-11, global = -6.01779e-13, cumulative = 2.08663e-07
smoothSolver:  Solving for nuTilda, Initial residual = 0.00120775, Final residual = 6.71024e-05, No Iterations 1
ExecutionTime = 4.71119 s  ClockTime = 5 s

Time = 75s

smoothSolver:  Solving for Ux, Initial residual = 0.049474, Final residual = 0.00303604, No Iterations 1
smoothSolver:  Solving for Uy, Initial residual = 0.0452656, Final residual = 0.00230933, No Iterations 1
smoothSolver:  Solving for Uz, Initial residual = 0.0678114, Final residual = 0.00321788, No Iterations 1
GAMG:  Solving for p, Initial residual = 0.3211, Final residual = 0.0131573, No Iterations 2
time step continuity errors : sum local = 6.42934e-11, global = 7.34044e-12, cumulative = 2.0867e-07
smoothSolver:  Solving for nuTilda, Initial residual = 0.00116922, Final residual = 6.45896e-05, No Iterations 1
ExecutionTime = 4.77074 s  ClockTime = 5 s

Time = 76s

smoothSolver:  Solving for Ux, Initial residual = 0.0494599, Final residual = 0.00299114, No Iterations 1
smoothSolver:  Solving for Uy, Initial residual = 0.0444808, Final residual = 0.00220399, No Iterations 1
smoothSolver:  Solving for Uz, Initial residual = 0.0662529, Final residual = 0.00302273, No Iterations 1
GAMG:  Solving for p, Initial residual = 0.329771, Final residual = 0.015149, No Iterations 2
time step continuity errors : sum local = 7.10892e-11, global = 7.46523e-13, cumulative = 2.08671e-07
smoothSolver:  Solving for nuTilda, Initial residual = 0.0011315, Final residual = 6.21308e-05, No Iterations 1
ExecutionTime = 4.83021 s  ClockTime = 5 s

Time = 77s

smoothSolver:  Solving for Ux, Initial residual = 0.0491364, Final residual = 0.00291503, No Iterations 1
smoothSolver:  Solving for Uy, Initial residual = 0.0435642, Final residual = 0.00208655, No Iterations 1
smoothSolver:  Solving for Uz, Initial residual = 0.0645397, Final residual = 0.00290662, No Iterations 1
GAMG:  Solving for p, Initial residual = 0.367963, Final residual = 0.0179399, No Iterations 2
time step continuity errors : sum local = 7.30471e-11, global = -3.05652e-12, cumulative = 2.08668e-07
smoothSolver:  Solving for nuTilda, Initial residual = 0.00109459, Final residual = 5.97251e-05, No Iterations 1
ExecutionTime = 4.88951 s  ClockTime = 5 s

Time = 78s

smoothSolver:  Solving for Ux, Initial residual = 0.0484498, Final residual = 0.00282292, No Iterations 1
smoothSolver:  Solving for Uy, Initial residual = 0.0428091, Final residual = 0.00199076, No Iterations 1
smoothSolver:  Solving for Uz, Initial residual = 0.0633267, Final residual = 0.00286467, No Iterations 1
GAMG:  Solving for p, Initial residual = 0.353106, Final residual = 0.0159453, No Iterations 2
time step continuity errors : sum local = 6.32527e-11, global = -2.2793e-12, cumulative = 2.08666e-07
smoothSolver:  Solving for nuTilda, Initial residual = 0.00105846, Final residual = 5.73718e-05, No Iterations 1
ExecutionTime = 4.94925 s  ClockTime = 5 s

Time = 79s

smoothSolver:  Solving for Ux, Initial residual = 0.0476732, Final residual = 0.00272674, No Iterations 1
smoothSolver:  Solving for Uy, Initial residual = 0.0423313, Final residual = 0.00192995, No Iterations 1
smoothSolver:  Solving for Uz, Initial residual = 0.0623027, Final residual = 0.00286604, No Iterations 1
GAMG:  Solving for p, Initial residual = 0.314467, Final residual = 0.012472, No Iterations 2
time step continuity errors : sum local = 5.15787e-11, global = -2.32208e-13, cumulative = 2.08666e-07
smoothSolver:  Solving for nuTilda, Initial residual = 0.0010231, Final residual = 5.50698e-05, No Iterations 1
ExecutionTime = 5.00857 s  ClockTime = 5 s

Time = 80s

smoothSolver:  Solving for Ux, Initial residual = 0.0469198, Final residual = 0.00263086, No Iterations 1
smoothSolver:  Solving for Uy, Initial residual = 0.0420571, Final residual = 0.00191885, No Iterations 1
smoothSolver:  Solving for Uz, Initial residual = 0.0610458, Final residual = 0.00287264, No Iterations 1
GAMG:  Solving for p, Initial residual = 0.307001, Final residual = 0.0150447, No Iterations 2
time step continuity errors : sum local = 6.07409e-11, global = -3.1662e-12, cumulative = 2.08662e-07
smoothSolver:  Solving for nuTilda, Initial residual = 0.00098849, Final residual = 5.28185e-05, No Iterations 1
ExecutionTime = 5.06815 s  ClockTime = 5 s

Time = 81s

smoothSolver:  Solving for Ux, Initial residual = 0.0462608, Final residual = 0.00253975, No Iterations 1
smoothSolver:  Solving for Uy, Initial residual = 0.0416057, Final residual = 0.00193264, No Iterations 1
smoothSolver:  Solving for Uz, Initial residual = 0.0597134, Final residual = 0.00288782, No Iterations 1
GAMG:  Solving for p, Initial residual = 0.30688, Final residual = 0.0146523, No Iterations 2
time step continuity errors : sum local = 5.81081e-11, global = -5.01728e-12, cumulative = 2.08657e-07
smoothSolver:  Solving for nuTilda, Initial residual = 0.000954596, Final residual = 5.06176e-05, No Iterations 1
ExecutionTime = 5.12771 s  ClockTime = 5 s

Time = 82s

smoothSolver:  Solving for Ux, Initial residual = 0.0456907, Final residual = 0.00245241, No Iterations 1
smoothSolver:  Solving for Uy, Initial residual = 0.0410388, Final residual = 0.00196254, No Iterations 1
smoothSolver:  Solving for Uz, Initial residual = 0.0585726, Final residual = 0.00292563, No Iterations 1
GAMG:  Solving for p, Initial residual = 0.297496, Final residual = 0.0123795, No Iterations 2
time step continuity errors : sum local = 4.83438e-11, global = 2.40844e-12, cumulative = 2.0866e-07
smoothSolver:  Solving for nuTilda, Initial residual = 0.000921403, Final residual = 4.84671e-05, No Iterations 1
ExecutionTime = 5.18718 s  ClockTime = 5 s

Time = 83s

smoothSolver:  Solving for Ux, Initial residual = 0.0451107, Final residual = 0.00236052, No Iterations 1
smoothSolver:  Solving for Uy, Initial residual = 0.0405594, Final residual = 0.00201417, No Iterations 1
smoothSolver:  Solving for Uz, Initial residual = 0.0580744, Final residual = 0.00300953, No Iterations 1
GAMG:  Solving for p, Initial residual = 0.287105, Final residual = 0.00876157, No Iterations 2
time step continuity errors : sum local = 3.23519e-11, global = 1.25361e-12, cumulative = 2.08661e-07
smoothSolver:  Solving for nuTilda, Initial residual = 0.000888888, Final residual = 4.6367e-05, No Iterations 1
ExecutionTime = 5.24629 s  ClockTime = 5 s

Time = 84s

smoothSolver:  Solving for Ux, Initial residual = 0.0445699, Final residual = 0.00226812, No Iterations 1
smoothSolver:  Solving for Uy, Initial residual = 0.0401778, Final residual = 0.00207307, No Iterations 1
smoothSolver:  Solving for Uz, Initial residual = 0.0578903, Final residual = 0.00310888, No Iterations 1
[...]
ExecutionTime = 10.4202 s  ClockTime = 11 s

Time = 172s

smoothSolver:  Solving for Ux, Initial residual = 0.0522152, Final residual = 0.0019263, No Iterations 1
smoothSolver:  Solving for Uy, Initial residual = 0.0577092, Final residual = 0.00260041, No Iterations 1
smoothSolver:  Solving for Uz, Initial residual = 0.0421761, Final residual = 0.00156954, No Iterations 1
GAMG:  Solving for p, Initial residual = 0.401998, Final residual = 0.0294668, No Iterations 2
time step continuity errors : sum local = 2.90098e-14, global = 3.4928e-15, cumulative = 2.08632e-07
smoothSolver:  Solving for nuTilda, Initial residual = 1.20078e-07, Final residual = 4.24506e-09, No Iterations 1
ExecutionTime = 10.4796 s  ClockTime = 11 s

Time = 173s

smoothSolver:  Solving for Ux, Initial residual = 0.0541809, Final residual = 0.00204932, No Iterations 1
smoothSolver:  Solving for Uy, Initial residual = 0.0590518, Final residual = 0.00286277, No Iterations 1
smoothSolver:  Solving for Uz, Initial residual = 0.0414473, Final residual = 0.00150871, No Iterations 1
GAMG:  Solving for p, Initial residual = 0.414314, Final residual = 0.0201705, No Iterations 2
time step continuity errors : sum local = 1.78434e-14, global = -3.07275e-15, cumulative = 2.08632e-07
smoothSolver:  Solving for nuTilda, Initial residual = 1.00431e-07, Final residual = 3.54876e-09, No Iterations 1
ExecutionTime = 10.5392 s  ClockTime = 11 s

Time = 174s

smoothSolver:  Solving for Ux, Initial residual = 0.0550813, Final residual = 0.0020916, No Iterations 1
smoothSolver:  Solving for Uy, Initial residual = 0.0603352, Final residual = 0.00306098, No Iterations 1
smoothSolver:  Solving for Uz, Initial residual = 0.0412344, Final residual = 0.00154681, No Iterations 1
GAMG:  Solving for p, Initial residual = 0.328757, Final residual = 0.0130174, No Iterations 2
time step continuity errors : sum local = 1.34322e-14, global = 6.23982e-16, cumulative = 2.08632e-07
smoothSolver:  Solving for nuTilda, Initial residual = 8.38638e-08, Final residual = 2.9619e-09, No Iterations 1
ExecutionTime = 10.5988 s  ClockTime = 11 s

Time = 175s

smoothSolver:  Solving for Ux, Initial residual = 0.054954, Final residual = 0.00208776, No Iterations 1
smoothSolver:  Solving for Uy, Initial residual = 0.0598987, Final residual = 0.00316485, No Iterations 1
smoothSolver:  Solving for Uz, Initial residual = 0.0413904, Final residual = 0.0016515, No Iterations 1
GAMG:  Solving for p, Initial residual = 0.315862, Final residual = 0.0237278, No Iterations 2
time step continuity errors : sum local = 2.11301e-14, global = -3.99988e-15, cumulative = 2.08632e-07
smoothSolver:  Solving for nuTilda, Initial residual = 6.99173e-08, Final residual = 2.46814e-09, No Iterations 1
ExecutionTime = 10.6581 s  ClockTime = 11 s

Time = 176s

smoothSolver:  Solving for Ux, Initial residual = 0.0543117, Final residual = 0.00211553, No Iterations 1
smoothSolver:  Solving for Uy, Initial residual = 0.0571658, Final residual = 0.00311073, No Iterations 1
smoothSolver:  Solving for Uz, Initial residual = 0.0417452, Final residual = 0.0017324, No Iterations 1
GAMG:  Solving for p, Initial residual = 0.311751, Final residual = 0.0251438, No Iterations 2
time step continuity errors : sum local = 2.06724e-14, global = -3.42611e-15, cumulative = 2.08632e-07
smoothSolver:  Solving for nuTilda, Initial residual = 5.81977e-08, Final residual = 2.05343e-09, No Iterations 1
ExecutionTime = 10.7176 s  ClockTime = 11 s

Time = 177s

smoothSolver:  Solving for Ux, Initial residual = 0.054087, Final residual = 0.00218163, No Iterations 1
smoothSolver:  Solving for Uy, Initial residual = 0.0538997, Final residual = 0.00304962, No Iterations 1
smoothSolver:  Solving for Uz, Initial residual = 0.0424713, Final residual = 0.00180248, No Iterations 1
GAMG:  Solving for p, Initial residual = 0.398714, Final residual = 0.0252796, No Iterations 2
time step continuity errors : sum local = 1.50101e-14, global = -1.28651e-17, cumulative = 2.08632e-07
smoothSolver:  Solving for nuTilda, Initial residual = 4.83661e-08, Final residual = 1.70571e-09, No Iterations 1
ExecutionTime = 10.7774 s  ClockTime = 11 s

Time = 178s

smoothSolver:  Solving for Ux, Initial residual = 0.0546686, Final residual = 0.00224283, No Iterations 1
smoothSolver:  Solving for Uy, Initial residual = 0.0518082, Final residual = 0.00306043, No Iterations 1
smoothSolver:  Solving for Uz, Initial residual = 0.0437414, Final residual = 0.001891, No Iterations 1
GAMG:  Solving for p, Initial residual = 0.372258, Final residual = 0.011015, No Iterations 2
time step continuity errors : sum local = 8.77572e-15, global = 1.18412e-16, cumulative = 2.08632e-07
smoothSolver:  Solving for nuTilda, Initial residual = 4.01324e-08, Final residual = 1.41465e-09, No Iterations 1
ExecutionTime = 10.8369 s  ClockTime = 11 s

Time = 179s

smoothSolver:  Solving for Ux, Initial residual = 0.0557575, Final residual = 0.00232584, No Iterations 1
smoothSolver:  Solving for Uy, Initial residual = 0.051111, Final residual = 0.00313743, No Iterations 1
smoothSolver:  Solving for Uz, Initial residual = 0.0449729, Final residual = 0.0019821, No Iterations 1
GAMG:  Solving for p, Initial residual = 0.321344, Final residual = 0.0173006, No Iterations 2
time step continuity errors : sum local = 1.08672e-14, global = -1.60432e-16, cumulative = 2.08632e-07
smoothSolver:  Solving for nuTilda, Initial residual = 3.32487e-08, Final residual = 1.17144e-09, No Iterations 1
ExecutionTime = 10.8964 s  ClockTime = 11 s

Time = 180s

smoothSolver:  Solving for Ux, Initial residual = 0.057011, Final residual = 0.00245607, No Iterations 1
smoothSolver:  Solving for Uy, Initial residual = 0.051148, Final residual = 0.0031958, No Iterations 1
smoothSolver:  Solving for Uz, Initial residual = 0.0463044, Final residual = 0.00208205, No Iterations 1
GAMG:  Solving for p, Initial residual = 0.343966, Final residual = 0.0276917, No Iterations 2
time step continuity errors : sum local = 1.34919e-14, global = -2.81756e-16, cumulative = 2.08632e-07
smoothSolver:  Solving for nuTilda, Initial residual = 2.75031e-08, Final residual = 9.68544e-10, No Iterations 1
ExecutionTime = 10.9559 s  ClockTime = 11 s

Time = 181s

smoothSolver:  Solving for Ux, Initial residual = 0.0578838, Final residual = 0.00258784, No Iterations 1
smoothSolver:  Solving for Uy, Initial residual = 0.0511152, Final residual = 0.00317249, No Iterations 1
smoothSolver:  Solving for Uz, Initial residual = 0.0479179, Final residual = 0.00222034, No Iterations 1
GAMG:  Solving for p, Initial residual = 0.361347, Final residual = 0.0326865, No Iterations 2
time step continuity errors : sum local = 1.35737e-14, global = -1.10756e-15, cumulative = 2.08632e-07
smoothSolver:  Solving for nuTilda, Initial residual = 2.27156e-08, Final residual = 7.99562e-10, No Iterations 1
ExecutionTime = 11.0152 s  ClockTime = 11 s

Time = 182s

smoothSolver:  Solving for Ux, Initial residual = 0.0584741, Final residual = 0.00270419, No Iterations 1
smoothSolver:  Solving for Uy, Initial residual = 0.0506171, Final residual = 0.0030631, No Iterations 1
smoothSolver:  Solving for Uz, Initial residual = 0.0501477, Final residual = 0.00238536, No Iterations 1
GAMG:  Solving for p, Initial residual = 0.308024, Final residual = 0.019442, No Iterations 2
time step continuity errors : sum local = 9.79687e-15, global = -2.47466e-16, cumulative = 2.08632e-07
smoothSolver:  Solving for nuTilda, Initial residual = 1.87328e-08, Final residual = 6.59058e-10, No Iterations 1
ExecutionTime = 11.0745 s  ClockTime = 11 s

Time = 183s

smoothSolver:  Solving for Ux, Initial residual = 0.058548, Final residual = 0.00279023, No Iterations 1
smoothSolver:  Solving for Uy, Initial residual = 0.0494589, Final residual = 0.00288554, No Iterations 1
smoothSolver:  Solving for Uz, Initial residual = 0.0531679, Final residual = 0.00252648, No Iterations 1
GAMG:  Solving for p, Initial residual = 0.268068, Final residual = 0.0099326, No Iterations 2
time step continuity errors : sum local = 7.78936e-15, global = 1.47487e-16, cumulative = 2.08632e-07
smoothSolver:  Solving for nuTilda, Initial residual = 1.5425e-08, Final residual = 5.42424e-10, No Iterations 1
ExecutionTime = 11.1341 s  ClockTime = 11 s

Time = 184s

smoothSolver:  Solving for Ux, Initial residual = 0.0582901, Final residual = 0.00286428, No Iterations 1
smoothSolver:  Solving for Uy, Initial residual = 0.0479233, Final residual = 0.00265561, No Iterations 1
smoothSolver:  Solving for Uz, Initial residual = 0.0562212, Final residual = 0.00260893, No Iterations 1
GAMG:  Solving for p, Initial residual = 0.275698, Final residual = 0.0188567, No Iterations 2
time step continuity errors : sum local = 9.37772e-15, global = 5.7027e-16, cumulative = 2.08632e-07
smoothSolver:  Solving for nuTilda, Initial residual = 1.26823e-08, Final residual = 4.45761e-10, No Iterations 1
ExecutionTime = 11.1938 s  ClockTime = 11 s

Time = 185s

smoothSolver:  Solving for Ux, Initial residual = 0.0583087, Final residual = 0.00295603, No Iterations 1
smoothSolver:  Solving for Uy, Initial residual = 0.0466269, Final residual = 0.00241041, No Iterations 1
smoothSolver:  Solving for Uz, Initial residual = 0.0591554, Final residual = 0.0026151, No Iterations 1
GAMG:  Solving for p, Initial residual = 0.308354, Final residual = 0.0297491, No Iterations 2
time step continuity errors : sum local = 1.06754e-14, global = 9.29921e-16, cumulative = 2.08632e-07
smoothSolver:  Solving for nuTilda, Initial residual = 1.04116e-08, Final residual = 3.65779e-10, No Iterations 1
ExecutionTime = 11.2533 s  ClockTime = 11 s

Time = 186s

smoothSolver:  Solving for Ux, Initial residual = 0.0580947, Final residual = 0.00302695, No Iterations 1
smoothSolver:  Solving for Uy, Initial residual = 0.0459443, Final residual = 0.0022551, No Iterations 1
smoothSolver:  Solving for Uz, Initial residual = 0.0620354, Final residual = 0.00269363, No Iterations 1
GAMG:  Solving for p, Initial residual = 0.307866, Final residual = 0.0279721, No Iterations 2
time step continuity errors : sum local = 9.77812e-15, global = 7.66057e-16, cumulative = 2.08632e-07
smoothSolver:  Solving for nuTilda, Initial residual = 8.53493e-09, Final residual = 8.53493e-09, No Iterations 0
ExecutionTime = 11.3125 s  ClockTime = 12 s

Time = 187s

smoothSolver:  Solving for Ux, Initial residual = 0.0582506, Final residual = 0.00312639, No Iterations 1
smoothSolver:  Solving for Uy, Initial residual = 0.0455783, Final residual = 0.00215775, No Iterations 1
smoothSolver:  Solving for Uz, Initial residual = 0.0651767, Final residual = 0.00286375, No Iterations 1
GAMG:  Solving for p, Initial residual = 0.290611, Final residual = 0.0159799, No Iterations 2
time step continuity errors : sum local = 7.71179e-15, global = 4.11931e-16, cumulative = 2.08632e-07
smoothSolver:  Solving for nuTilda, Initial residual = 8.53493e-09, Final residual = 8.53493e-09, No Iterations 0
ExecutionTime = 11.3717 s  ClockTime = 12 s

Time = 188s

smoothSolver:  Solving for Ux, Initial residual = 0.058421, Final residual = 0.00324684, No Iterations 1
smoothSolver:  Solving for Uy, Initial residual = 0.0452026, Final residual = 0.00209831, No Iterations 1
smoothSolver:  Solving for Uz, Initial residual = 0.0688977, Final residual = 0.00308757, No Iterations 1
GAMG:  Solving for p, Initial residual = 0.286461, Final residual = 0.00898419, No Iterations 2
time step continuity errors : sum local = 6.97989e-15, global = -1.92889e-16, cumulative = 2.08632e-07
smoothSolver:  Solving for nuTilda, Initial residual = 8.53493e-09, Final residual = 8.53493e-09, No Iterations 0
ExecutionTime = 11.431 s  ClockTime = 12 s

Time = 189s

smoothSolver:  Solving for Ux, Initial residual = 0.058776, Final residual = 0.00339689, No Iterations 1
smoothSolver:  Solving for Uy, Initial residual = 0.0447278, Final residual = 0.00204024, No Iterations 1
smoothSolver:  Solving for Uz, Initial residual = 0.0724634, Final residual = 0.00333149, No Iterations 1
GAMG:  Solving for p, Initial residual = 0.297995, Final residual = 0.0172014, No Iterations 2
time step continuity errors : sum local = 7.74784e-15, global = -5.96535e-16, cumulative = 2.08632e-07
smoothSolver:  Solving for nuTilda, Initial residual = 8.53493e-09, Final residual = 8.53493e-09, No Iterations 0
ExecutionTime = 11.4903 s  ClockTime = 12 s

Time = 190s

smoothSolver:  Solving for Ux, Initial residual = 0.0592818, Final residual = 0.00356171, No Iterations 1
smoothSolver:  Solving for Uy, Initial residual = 0.0441386, Final residual = 0.00198031, No Iterations 1
smoothSolver:  Solving for Uz, Initial residual = 0.0753248, Final residual = 0.00354664, No Iterations 1
GAMG:  Solving for p, Initial residual = 0.29333, Final residual = 0.0211041, No Iterations 2
time step continuity errors : sum local = 7.88828e-15, global = -4.9227e-16, cumulative = 2.08632e-07
smoothSolver:  Solving for nuTilda, Initial residual = 8.53493e-09, Final residual = 8.53493e-09, No Iterations 0
ExecutionTime = 11.5493 s  ClockTime = 12 s

Time = 191s

smoothSolver:  Solving for Ux, Initial residual = 0.0595944, Final residual = 0.00371052, No Iterations 1
smoothSolver:  Solving for Uy, Initial residual = 0.0436184, Final residual = 0.00191471, No Iterations 1
smoothSolver:  Solving for Uz, Initial residual = 0.0774291, Final residual = 0.00370459, No Iterations 1
GAMG:  Solving for p, Initial residual = 0.285097, Final residual = 0.0176195, No Iterations 2
time step continuity errors : sum local = 7.44879e-15, global = -3.50503e-16, cumulative = 2.08632e-07
smoothSolver:  Solving for nuTilda, Initial residual = 8.53493e-09, Final residual = 8.53493e-09, No Iterations 0
ExecutionTime = 11.6085 s  ClockTime = 12 s

Time = 192s

smoothSolver:  Solving for Ux, Initial residual = 0.0597677, Final residual = 0.00384284, No Iterations 1
smoothSolver:  Solving for Uy, Initial residual = 0.0434732, Final residual = 0.00185069, No Iterations 1
smoothSolver:  Solving for Uz, Initial residual = 0.0790106, Final residual = 0.00383823, No Iterations 1
GAMG:  Solving for p, Initial residual = 0.291387, Final residual = 0.0108326, No Iterations 2
time step continuity errors : sum local = 6.88635e-15, global = -2.23505e-17, cumulative = 2.08632e-07
smoothSolver:  Solving for nuTilda, Initial residual = 8.53493e-09, Final residual = 8.53493e-09, No Iterations 0
ExecutionTime = 11.6677 s  ClockTime = 12 s

Time = 193s

smoothSolver:  Solving for Ux, Initial residual = 0.059598, Final residual = 0.00394642, No Iterations 1
smoothSolver:  Solving for Uy, Initial residual = 0.0439932, Final residual = 0.00183083, No Iterations 1
smoothSolver:  Solving for Uz, Initial residual = 0.0805491, Final residual = 0.00396672, No Iterations 1
GAMG:  Solving for p, Initial residual = 0.32351, Final residual = 0.0315116, No Iterations 1
time step continuity errors : sum local = 8.51643e-15, global = -8.91822e-16, cumulative = 2.08632e-07
smoothSolver:  Solving for nuTilda, Initial residual = 8.53493e-09, Final residual = 8.53493e-09, No Iterations 0
ExecutionTime = 11.7252 s  ClockTime = 12 s

Time = 194s

smoothSolver:  Solving for Ux, Initial residual = 0.05962, Final residual = 0.00402969, No Iterations 1
smoothSolver:  Solving for Uy, Initial residual = 0.0449805, Final residual = 0.00184979, No Iterations 1
smoothSolver:  Solving for Uz, Initial residual = 0.0810736, Final residual = 0.00412611, No Iterations 1
GAMG:  Solving for p, Initial residual = 0.3458, Final residual = 0.0203659, No Iterations 2
time step continuity errors : sum local = 7.41311e-15, global = 4.86479e-16, cumulative = 2.08632e-07
smoothSolver:  Solving for nuTilda, Initial residual = 8.53493e-09, Final residual = 8.53493e-09, No Iterations 0
ExecutionTime = 11.7846 s  ClockTime = 12 s

Time = 195s

smoothSolver:  Solving for Ux, Initial residual = 0.0595986, Final residual = 0.00405748, No Iterations 1
smoothSolver:  Solving for Uy, Initial residual = 0.0468665, Final residual = 0.00190847, No Iterations 1
smoothSolver:  Solving for Uz, Initial residual = 0.0806197, Final residual = 0.0042942, No Iterations 1
GAMG:  Solving for p, Initial residual = 0.366041, Final residual = 0.0241842, No Iterations 2
time step continuity errors : sum local = 7.32728e-15, global = 3.59626e-16, cumulative = 2.08632e-07
smoothSolver:  Solving for nuTilda, Initial residual = 8.53493e-09, Final residual = 8.53493e-09, No Iterations 0
ExecutionTime = 11.8441 s  ClockTime = 12 s

Time = 196s

smoothSolver:  Solving for Ux, Initial residual = 0.0596802, Final residual = 0.00408611, No Iterations 1
smoothSolver:  Solving for Uy, Initial residual = 0.0490697, Final residual = 0.00200543, No Iterations 1
smoothSolver:  Solving for Uz, Initial residual = 0.0791163, Final residual = 0.00440287, No Iterations 1
GAMG:  Solving for p, Initial residual = 0.362719, Final residual = 0.0194595, No Iterations 2
time step continuity errors : sum local = 6.98504e-15, global = 2.26083e-16, cumulative = 2.08632e-07
smoothSolver:  Solving for nuTilda, Initial residual = 8.53493e-09, Final residual = 8.53493e-09, No Iterations 0
ExecutionTime = 11.9036 s  ClockTime = 12 s

Time = 197s

smoothSolver:  Solving for Ux, Initial residual = 0.0600724, Final residual = 0.00412887, No Iterations 1
smoothSolver:  Solving for Uy, Initial residual = 0.0514504, Final residual = 0.00211431, No Iterations 1
smoothSolver:  Solving for Uz, Initial residual = 0.0769112, Final residual = 0.00442481, No Iterations 1
GAMG:  Solving for p, Initial residual = 0.375264, Final residual = 0.0371484, No Iterations 1
time step continuity errors : sum local = 7.87683e-15, global = 4.10905e-16, cumulative = 2.08632e-07
smoothSolver:  Solving for nuTilda, Initial residual = 8.53494e-09, Final residual = 8.53494e-09, No Iterations 0
ExecutionTime = 11.961 s  ClockTime = 12 s

Time = 198s

smoothSolver:  Solving for Ux, Initial residual = 0.0607721, Final residual = 0.00434353, No Iterations 1
smoothSolver:  Solving for Uy, Initial residual = 0.0542703, Final residual = 0.00224323, No Iterations 1
smoothSolver:  Solving for Uz, Initial residual = 0.0745, Final residual = 0.00433689, No Iterations 1
GAMG:  Solving for p, Initial residual = 0.408729, Final residual = 0.0406467, No Iterations 1
time step continuity errors : sum local = 7.8701e-15, global = 6.21735e-16, cumulative = 2.08632e-07
smoothSolver:  Solving for nuTilda, Initial residual = 8.53494e-09, Final residual = 8.53494e-09, No Iterations 0
ExecutionTime = 12.018 s  ClockTime = 12 s

Time = 199s

smoothSolver:  Solving for Ux, Initial residual = 0.061887, Final residual = 0.00463033, No Iterations 1
smoothSolver:  Solving for Uy, Initial residual = 0.0572936, Final residual = 0.00240518, No Iterations 1
smoothSolver:  Solving for Uz, Initial residual = 0.0719545, Final residual = 0.00416948, No Iterations 1
GAMG:  Solving for p, Initial residual = 0.443501, Final residual = 0.0201576, No Iterations 2
time step continuity errors : sum local = 6.8664e-15, global = -2.46148e-16, cumulative = 2.08632e-07
smoothSolver:  Solving for nuTilda, Initial residual = 8.53494e-09, Final residual = 8.53494e-09, No Iterations 0
ExecutionTime = 12.0776 s  ClockTime = 12 s

Time = 200s

smoothSolver:  Solving for Ux, Initial residual = 0.0641691, Final residual = 0.00493279, No Iterations 1
smoothSolver:  Solving for Uy, Initial residual = 0.0612429, Final residual = 0.00264312, No Iterations 1
smoothSolver:  Solving for Uz, Initial residual = 0.0697701, Final residual = 0.00392874, No Iterations 1
GAMG:  Solving for p, Initial residual = 0.354182, Final residual = 0.0148476, No Iterations 2
time step continuity errors : sum local = 6.8261e-15, global = -1.00937e-16, cumulative = 2.08632e-07
smoothSolver:  Solving for nuTilda, Initial residual = 8.53494e-09, Final residual = 8.53494e-09, No Iterations 0
ExecutionTime = 12.1371 s  ClockTime = 12 s

End

Finalising parallel run
cleanup...
